%chk=mol_5786.chk
# wB97XD/Def2SVP opt pop=full gfinput

C 5 H 9 N 1 O 1

1 2
N    1.762226  -0.042632  -0.412036
C    4.498512  -0.150025  -1.009681
C    4.903783  -2.228063  -3.015417
O    3.231583  -1.847094  -5.098141
C    5.403974   2.460027  -1.938651
C    8.175352   2.580383  -2.179780
C   10.432668   2.684602  -2.397212
H    1.467939   1.283389   0.958885
H    1.224845  -1.724583   0.368988
H    5.533156  -0.667470   0.710480
H    4.483432  -4.090218  -2.213625
H    6.844532  -2.268012  -3.724858
H    1.689396  -1.162503  -4.336619
H    4.812698   3.916873  -0.585343
H    4.519960   2.942115  -3.750105
H   12.432338   2.780675  -2.613699

