%chk=mol_4609.chk
# wB97XD/Def2SVP opt pop=full gfinput

C 4 H 9 N 1 O 2

1 2
C    1.884473   0.029518   0.078310
C    4.757367   0.023811  -0.148136
C    5.593608  -1.322185  -2.559955
O    8.273920  -1.564013  -2.627362
C    5.681103   2.728065  -0.007842
N    6.982481   3.759100  -1.806994
O    7.570337   6.242181  -1.113446
H    1.279382   0.970450   1.820638
H    1.140261  -1.901216   0.106675
H    1.009700   1.037460  -1.505488
H    5.567341  -0.940158   1.498836
H    4.979750  -0.326242  -4.268513
H    4.807142  -3.234550  -2.626606
H    8.929315   0.159398  -2.766446
H    5.215947   3.785084   1.733748
H    8.514841   6.858723  -2.572730

