%chk=mol_2041.chk
# wB97XD/Def2SVP opt pop=full gfinput

C 5 H 10 N 2

1 2
N    4.456220  -1.151013   2.179327
C    4.249314   0.207549  -0.213086
C    5.441637   2.798325  -0.029423
C    3.995051   4.886038  -0.191316
C    8.205720   2.834381   0.335030
C    9.898914   2.390995  -1.914878
N    9.682503   4.890554  -0.786825
H    3.539419  -2.835251   2.016810
H    3.500396  -0.156318   3.524528
H    2.249209   0.337902  -0.738203
H    5.185503  -0.884222  -1.702908
H    1.966354   4.790645  -0.459619
H    4.839418   6.753088  -0.069391
H    8.845581   2.157274   2.163245
H    9.059971   2.180933  -3.769569
H   11.661746   1.394845  -1.626449
H   11.203128   5.287170   0.330853

