%chk=mol_3140.chk
# wB97XD/Def2SVP opt pop=full gfinput

C 5 H 8 O 2

1 2
C    1.695065   0.582603  -0.270231
C    4.287448   0.449490  -1.414895
O    4.786997  -0.810012  -3.291393
C    6.246263   2.025730  -0.175367
C    8.202394   3.398729  -1.735657
C    6.141383   4.858051  -0.460923
O    6.877980   6.263214   1.735298
H    0.659344   2.165475  -1.099140
H    1.825041   0.829854   1.777117
H    0.686235  -1.181060  -0.648025
H    6.887409   1.284825   1.625656
H    8.126295   3.194544  -3.773802
H   10.101606   3.516629  -0.979993
H    4.679774   5.660013  -1.657403
H    7.660477   7.861809   1.268989

