%chk=mol_3201.chk
# wB97XD/Def2SVP opt pop=full gfinput

C 6 H 10 O 1

1 2
C    2.641894  -1.354858   0.008957
C    5.470039  -0.834144   0.119695
O    6.716049  -2.416034  -1.668175
C    6.064018   1.940352  -0.436281
C    8.888459   2.506778  -0.180223
C    9.410685   5.190756  -0.688182
C    9.843602   7.377491  -1.107984
H    1.617662  -0.238786   1.416350
H    2.264421  -3.360632   0.353587
H    1.877348  -0.919371  -1.865160
H    6.178176  -1.345107   1.996760
H    6.013241  -2.060028  -3.329792
H    4.988537   3.156013   0.854780
H    5.457491   2.411687  -2.364123
H    9.978680   1.338871  -1.497835
H    9.529190   2.030208   1.731348
H   10.232792   9.317767  -1.483359

