%chk=mol_6467.chk
# wB97XD/Def2SVP opt pop=full gfinput

C 4 H 8 O 2 S 1

1 2
C    1.825929  -0.018160   0.048849
C    4.692095   0.030935   0.066556
C    5.919000   2.075637   1.773924
S    8.447869  -0.015080   2.431057
O    8.992526  -0.131430   5.106872
O   10.393248   0.109302   0.509716
C    5.992189  -2.121558   1.576353
H    1.132758  -1.641265  -1.030411
H    1.074045   1.697314  -0.829514
H    1.055261  -0.146907   1.964824
H    5.402141   0.136438  -1.884832
H    4.854158   2.564547   3.479496
H    6.495404   3.803868   0.800904
H    6.626646  -3.729960   0.446353
H    4.948399  -2.805261   3.226556

