%chk=mol_0135.chk
# wB97XD/Def2SVP opt pop=full gfinput

C 5 H 10

1 2
C    3.947959  -0.601216   2.818470
C    4.698350   0.089535   0.128785
C    5.813270   2.709263  -0.068162
C    4.028461   4.893559   0.265299
C    8.274241   3.073261  -0.581242
H    3.242128  -2.545121   2.881587
H    2.449558   0.634268   3.530122
H    5.564299  -0.466517   4.104164
H    3.044727  -0.046544  -1.112879
H    6.051338  -1.323526  -0.558811
H    2.458912   4.748806  -1.074857
H    4.960361   6.712572  -0.058695
H    3.257661   4.920110   2.184108
H    9.560673   1.497003  -0.844424
H    9.070402   4.956619  -0.746612

