%chk=mol_0602.chk
# wB97XD/Def2SVP opt pop=full gfinput

C 5 H 6 O 1

1 2
C    0.455084  -2.643141   0.079085
O   -2.091776  -1.687336   0.028403
C   -2.410365   0.878042  -0.002589
C   -0.548417   2.588774  -0.021146
C    2.038126   1.775190  -0.015817
C    2.530759  -0.703999   0.030840
H    0.666053  -3.905138  -1.548385
H    0.642053  -3.794778   1.788966
H   -4.395503   1.369371  -0.014192
H   -0.954916   4.595965  -0.045656
H    3.531275   3.180825  -0.049738
H    4.466009  -1.376420   0.037171

