%chk=mol_1324.chk
# wB97XD/Def2SVP opt pop=full gfinput

C 5 H 14 N 2

1 2
C    1.819712  -0.099041   0.300334
C    4.632947  -0.209760  -0.319269
C    6.091419   2.331979  -0.132394
C    4.966616   4.327341  -1.915918
N    5.982363   3.318699   2.481305
C    8.920547   1.895830  -0.867743
N   10.318131   0.418007   1.026631
H    0.992673  -1.988389   0.124401
H    0.799279   1.143190  -0.997983
H    1.485400   0.545318   2.235451
H    4.831784  -0.962154  -2.242595
H    5.500407  -1.613694   0.937531
H    4.947435   3.643354  -3.870140
H    6.073089   6.078815  -1.877481
H    3.025414   4.827022  -1.401175
H    6.496349   1.883036   3.664651
H    4.159608   3.737859   2.936993
H    9.883797   3.719359  -1.082227
H    9.038523   0.926911  -2.694598
H   10.317640   1.459587   2.652174
H   12.163014   0.314224   0.484545

