%chk=mol_0288.chk
# wB97XD/Def2SVP opt pop=full gfinput

C 4 H 6 N 2

1 2
C    1.784563   0.000699   0.076118
C    4.638654   0.000699   0.211423
C    5.764572   2.108065  -1.276888
N    7.151329   1.346562  -3.138306
N    7.151366  -1.353346  -3.134734
C    5.764628  -2.109690  -1.271880
H    1.006525   1.682990   0.996679
H    1.006071  -1.674052   1.009832
H    1.109118  -0.006916  -1.882545
H    5.336794   0.003231   2.152663
H    5.432131   4.096189  -0.790170
H    5.432282  -4.097701  -0.780249

