%chk=mol_1334.chk
# wB97XD/Def2SVP opt pop=full gfinput

C 5 H 10 N 2

1 2
C    1.410775   2.054756   1.430655
C    4.210631   1.692099   1.424721
C    5.751249   2.664457  -0.339338
C    8.562727   2.312874  -0.419500
N    9.787704   4.800547  -0.376679
N   12.278590   4.826285  -0.976705
C   13.029227   7.031463  -1.698391
H    0.462586   0.222364   1.366026
H    0.768287   3.170564  -0.187026
H    0.831347   3.033313   3.158299
H    4.990899   0.559302   2.958328
H    4.957508   3.779622  -1.875364
H    9.038598   1.326512  -2.174961
H    9.239476   1.158119   1.158572
H    9.517379   5.525257   1.396734
H   15.013704   7.313920  -2.257108
H   11.775942   8.700526  -1.815743

