%chk=mol_3079.chk
# wB97XD/Def2SVP opt pop=full gfinput

C 6 H 12 O 1

1 2
C    1.858867  -0.238842  -0.545753
C    4.653035  -0.211971   0.145603
C    5.799872   2.445438  -0.006123
O    4.499740   4.088290   1.678436
C    8.587086   2.393074   0.591957
C    9.799005   3.765468   2.351140
C   12.579340   3.625742   2.825405
H    1.126730  -2.172996  -0.476986
H    1.561934   0.491612  -2.458477
H    0.745270   0.905727   0.769515
H    5.669065  -1.499687  -1.121080
H    4.845674  -0.959886   2.070006
H    5.557647   3.200119  -1.919130
H    4.689752   3.379737   3.362031
H    9.692443   1.113105  -0.582716
H    8.759939   5.106210   3.513360
H   13.524675   2.294732   1.556000
H   12.930754   3.022712   4.771804
H   13.433062   5.489711   2.557329

