%chk=mol_6746.chk
# wB97XD/Def2SVP opt pop=full gfinput

C 6 H 11 N 1

1 2
C    1.911534   0.488400  -0.490743
C    4.677413   0.083280  -0.157679
C    6.043665  -1.838307  -1.755026
N    6.387633   0.872959  -2.173072
C    8.854445   1.697541  -1.187636
C   11.140257   1.512272  -2.875350
C   10.013847   4.047340  -2.300250
H    1.384073   2.374724   0.172456
H    0.855233  -0.900001   0.619433
H    1.321750   0.312769  -2.466338
H    5.254780   0.317965   1.792330
H    5.008171  -2.823270  -3.220244
H    7.577858  -2.901939  -0.915440
H    9.200944   1.413761   0.821313
H   10.891191   0.760860  -4.765039
H   12.929620   1.032622  -2.006870
H   11.036492   5.295542  -1.040842
H    9.002580   5.008813  -3.799257

