%chk=mol_0300.chk
# wB97XD/Def2SVP opt pop=full gfinput

C 5 H 9 N 1

1 2
C    1.863062   0.031369  -0.131941
C    4.732158  -0.018047   0.100496
N    5.548746  -2.375499   1.365781
C    6.456457  -1.657006   3.904741
C    6.677121   1.137861   3.859614
C    5.702022   2.062107   1.727625
H    1.190924  -1.549821  -1.289058
H    1.228832   1.786415  -1.031280
H    0.932750  -0.097132   1.716249
H    5.586730   0.089894  -1.781709
H    7.064533  -3.054005   0.390758
H    8.279211  -2.550960   4.299429
H    5.095703  -2.258450   5.340102
H    7.468595   2.246676   5.379540
H    5.591775   4.043693   1.243667

