%chk=mol_5362.chk
# wB97XD/Def2SVP opt pop=full gfinput

C 4 H 10 N 2 O 1

1 2
C    3.160302   3.311178  -3.655581
O    5.777743   3.370062  -3.049546
C    6.180897   3.357495  -0.378040
C    9.003733   3.446615   0.131922
C    9.993269   6.023087  -0.537022
N   10.887393   7.499492   1.199976
N   11.692680   9.743542   0.284706
H    2.968080   3.383555  -5.711357
H    2.189002   4.946434  -2.843887
H    2.302329   1.558759  -2.971632
H    5.393600   1.610595   0.407746
H    5.219801   4.979542   0.481105
H   10.009369   2.066983  -1.036269
H    9.386647   3.060185   2.127681
H    9.899803   6.580027  -2.550072
H   13.299401   9.529114  -0.769175
H   12.204588  10.888602   1.755631

