%chk=mol_1965.chk
# wB97XD/Def2SVP opt pop=full gfinput

C 7 H 10

1 2
C    1.889726   0.000000   0.000000
C    4.618491   0.000000   0.000000
C    6.867567   0.000000   0.000000
C    9.599620   0.022450   0.004441
C   10.856514   1.993529   1.775058
C   12.891919  -0.014740   2.341106
C   10.896671  -2.025616   1.652679
H    1.145117   1.929146   0.022242
H    1.145231  -0.983754   1.659671
H    1.145023  -0.945392  -1.681724
H   10.390471   0.089233  -1.914897
H    9.734830   2.520838   3.436675
H   11.541596   3.714276   0.858994
H   14.503686   0.040837   1.041598
H   13.590060  -0.066859   4.283593
H   11.616336  -3.673420   0.634192
H    9.786892  -2.675966   3.278165

