%chk=mol_3037.chk
# wB97XD/Def2SVP opt pop=full gfinput

C 5 H 10 O 2

1 2
C    1.826987   0.398581   0.220852
C    4.679510  -0.002853  -0.026135
C    5.597596  -1.775435   2.066113
O    5.114468  -1.243704  -2.388765
C    6.010387   2.515792  -0.127462
C    7.452418   3.687952   2.035159
O    8.718043   2.369490   0.029536
H    1.098970   1.527768  -1.356181
H    1.349246   1.374757   1.981794
H    0.813357  -1.406504   0.166183
H    5.222617  -1.007054   3.949301
H    7.629089  -2.142118   1.904995
H    4.665658  -3.620224   1.924686
H    6.941890  -1.266948  -2.625623
H    5.239700   3.752996  -1.566470
H    7.428778   2.812215   3.881479
H    7.634172   5.726739   2.078529

