%chk=mol_1047.chk
# wB97XD/Def2SVP opt pop=full gfinput

C 4 H 11 N 1 O 1

1 2
C    2.716311  -0.474132  -0.562383
N    5.362873   0.023546  -1.157060
C    6.257809   2.284906   0.201596
C    9.117229   2.711077  -0.161817
C   10.725387   0.722782   1.163486
O    9.713400   2.708714  -2.798968
H    2.077905  -2.137148  -1.612409
H    1.506433   1.118605  -1.095021
H    2.464392  -0.873998   1.451461
H    5.490448   0.385731  -3.048525
H    5.847361   2.133576   2.227458
H    5.244179   3.935865  -0.536852
H    9.612659   4.580072   0.577406
H   10.384687  -1.168796   0.395009
H   10.351031   0.689920   3.196925
H   12.735979   1.121439   0.871485
H    9.447478   0.978500  -3.366037

