%chk=mol_5170.chk
# wB97XD/Def2SVP opt pop=full gfinput

C 4 H 8 N 2 O 1

1 2
C    1.741288   2.008193   0.834371
N    4.041576   1.216795  -0.395444
C    6.001355   2.809002  -0.910886
N    5.933116   5.214472  -1.224769
C    8.504675   1.586028  -1.143435
C   10.299593   1.599597   1.063349
O    8.865348  -0.609059   0.435109
H    0.454309   0.399885   1.010399
H    0.775298   3.474375  -0.256266
H    2.141608   2.728538   2.731864
H    4.628393  -0.543013   0.130278
H    4.106753   5.818221  -1.079808
H    9.299664   1.535724  -3.027776
H    9.765633   2.647280   2.738421
H   12.305745   1.579660   0.668434

