%chk=mol_2292.chk
# wB97XD/Def2SVP opt pop=full gfinput

C 6 H 10 O 1

1 2
C    1.954600  -0.077970  -0.033108
C    4.772447  -0.081088   0.001077
C    6.324176  -1.394505  -2.007532
C    5.155305  -2.772625  -4.169397
C    6.237948   1.464897  -1.911496
C    8.524290   2.880188  -1.135177
O   10.084032   3.562852  -2.700078
H    1.237997   1.373188   1.255213
H    1.233084  -1.909549   0.600366
H    1.180380   0.312428  -1.910135
H    5.479204  -0.197042   1.923533
H    8.045339  -2.328199  -1.393125
H    3.582259  -1.735014  -5.020398
H    4.455464  -4.615184  -3.543180
H    6.568197  -3.092216  -5.646275
H    5.167664   2.414144  -3.382572
H    8.731593   3.299254   0.895031

