%chk=mol_2487.chk
# wB97XD/Def2SVP opt pop=full gfinput

C 7 H 10

1 2
C    1.407052   3.964230  -1.077125
C    3.930838   2.741709  -0.740451
C    6.045366   4.012323  -0.157830
C    8.466275   2.788537   0.157112
C   10.585868   4.055428   0.730511
C   13.003092   2.826690   1.042997
C   15.124121   4.081412   1.608063
H    0.055747   3.169808   0.271289
H    0.703696   3.609490  -2.988847
H    1.481867   6.010501  -0.786202
H    3.983845   0.704358  -0.998097
H    5.973594   6.052490   0.095412
H    8.523950   0.748974  -0.092861
H   10.531576   6.095973   0.980050
H   13.083727   0.786126   0.803398
H   15.155358   6.115570   1.867484
H   16.899689   3.077551   1.824739

