%chk=mol_6152.chk
# wB97XD/Def2SVP opt pop=full gfinput

C 5 H 9 N 1 O 1

1 2
O    2.698623   0.980957  -2.405262
C    4.056921   0.246156  -0.197155
C    6.164381   2.060935   0.318116
N    7.133962   3.675725  -1.710750
C    5.705064   4.876816   0.330475
C    7.139215   6.457666   2.084406
C    6.496255   6.972504   4.477498
H    1.454787  -0.335143  -2.715744
H    4.822676  -1.649580  -0.507240
H    2.750118   0.190579   1.403462
H    7.555484   1.295445   1.610028
H    5.981286   3.446407  -3.253806
H    3.848786   5.583177  -0.188122
H    8.874589   7.284724   1.353082
H    4.784238   6.211700   5.312606
H    7.680244   8.173481   5.643044

