%chk=mol_0728.chk
# wB97XD/Def2SVP opt pop=full gfinput

C 4 H 4 O 2

1 2
C    1.889726   0.000000   0.000000
C    4.618491   0.000000   0.000000
C    6.867567   0.000000   0.000000
C    9.594460   0.030538   0.000000
O   10.647208  -2.295129   0.000000
O   10.785839   2.001163  -0.000000
H    1.145023   1.929127   0.022072
H    1.145079  -0.983716   1.659633
H    1.145079  -0.945468  -1.681724
H    9.354352  -3.609830   0.000000

