%chk=mol_0925.chk
# wB97XD/Def2SVP opt pop=full gfinput

C 4 H 6 O 2

1 2
O    2.075449   0.733176  -1.277606
C    4.230171   0.153332  -0.031577
O    4.571210  -1.868807   1.018260
C    6.205067   2.153135  -0.007767
C    6.680541   3.876263  -2.234658
C    5.580418   4.934453   0.160230
H    2.089451   2.415561  -2.014316
H    7.880574   1.556076   1.025592
H    5.494965   3.732738  -3.897069
H    8.632344   4.330383  -2.675418
H    6.789711   6.103135   1.335715
H    3.623096   5.533194   0.177918

