%chk=mol_3105.chk
# wB97XD/Def2SVP opt pop=full gfinput

C 5 H 6 O 2

1 2
C    2.093987  -0.110662   0.073302
C    4.935511  -0.153578   0.086436
C    6.057782  -2.732563   0.267358
O    4.726432  -4.628242   0.399110
C    6.289292   1.990713  -0.057485
C    9.075089   2.278348  -0.063381
O   10.573396   0.531656   0.107979
H    1.346222   1.814761  -0.056994
H    1.347677  -0.949852   1.811491
H    1.360093  -1.172688  -1.544057
H    8.123592  -2.890223   0.275465
H    5.310092   3.791679  -0.189237
H    9.726213   4.253074  -0.236896

