%chk=mol_2590.chk
# wB97XD/Def2SVP opt pop=full gfinput

C 6 H 8 O 1

1 2
C    1.550275   0.150479  -0.283024
C    3.635890   0.639408   1.062083
C    5.516205   2.492908   0.125138
C    4.751811   5.327214   0.362714
C    7.281512   5.963125   1.680552
C    7.623798   3.099604   2.082516
O    9.001465   1.849891   3.421160
H    0.178069  -1.222766   0.385315
H    1.155303   1.083267  -2.067530
H    3.990762  -0.344327   2.832567
H    6.311364   1.983816  -1.720048
H    3.100039   5.692516   1.561292
H    4.459735   6.293128  -1.443184
H    8.723505   6.782341   0.447563
H    7.116784   7.062096   3.418911

