%chk=mol_3597.chk
# wB97XD/Def2SVP opt pop=full gfinput

C 5 H 8 O 2

1 2
O    1.935760   0.113119  -0.062890
C    4.606283  -0.027873  -0.063986
C    5.550145  -2.454754   1.187825
C    6.125113  -1.733748   3.931802
O    8.381238  -2.904244   4.765436
C    6.451657   1.062140   3.813656
C    5.593117   1.995362   1.627054
H    1.314815  -1.283578  -1.080243
H    5.306786   0.162233  -1.999935
H    7.272176  -3.123642   0.243246
H    4.161971  -3.988210   1.101748
H    4.579185  -2.247678   5.206195
H    9.785909  -2.045496   3.950378
H    7.157394   2.184731   5.367049
H    5.517169   3.981086   1.154698

