%chk=mol_4349.chk
# wB97XD/Def2SVP opt pop=full gfinput

C 6 H 7 N 1

1 2
C    4.733783   0.507883   1.839365
C    4.074117  -0.022582  -0.989404
C    4.654509   2.648168  -1.426875
C    4.889383   4.777738  -2.801784
N    5.736680   6.581935  -1.074631
C    5.977922   5.526353   1.330254
C    5.272733   3.099170   1.028332
H    6.353108  -0.460659   2.689250
H    3.212818   0.387224   3.240427
H    2.136864  -0.551120  -1.490729
H    5.296525  -1.315268  -2.050410
H    4.572684   5.255215  -4.762147
H    6.110033   8.406125  -1.503712
H    6.599868   6.646904   2.920817

