%chk=mol_3593.chk
# wB97XD/Def2SVP opt pop=full gfinput

C 5 H 4 O 2

1 2
O    2.147730   0.045505  -0.874036
C    4.369670  -0.028365  -0.267906
C    5.933910  -2.362195   0.069485
C    8.406163  -1.212807   0.826793
O   10.337217  -2.357490   1.346940
C    8.231080   1.573102   0.871731
C    5.885325   2.261303   0.235668
H    6.123242  -3.369949  -1.719405
H    5.178662  -3.528534   1.592189
H    9.805052   2.768865   1.354083
H    5.124219   4.142166   0.084924

