%chk=mol_1247.chk
# wB97XD/Def2SVP opt pop=full gfinput

C 6 H 11 N 1

1 2
C    5.761340  -2.759643   2.415202
C    5.280367  -1.141149   0.128596
C    3.997149  -2.030435  -1.877046
C    6.258395   1.543169   0.247913
N    9.019663   1.596025   0.499776
C   10.344512   2.240157  -1.834149
C   10.084656   4.130355   0.279075
H    7.787580  -3.075246   2.680633
H    4.855991  -4.613615   2.255672
H    5.007869  -1.844486   4.110948
H    3.291298  -3.955820  -1.925310
H    3.633773  -0.864984  -3.523735
H    5.419394   2.457287   1.912667
H    5.582345   2.627985  -1.390139
H    9.259563   2.522728  -3.546732
H   12.161465   1.335810  -2.099391
H   11.726866   4.502613   1.443977
H    8.808032   5.710715   0.036207

