%chk=mol_5044.chk
# wB97XD/Def2SVP opt pop=full gfinput

C 4 H 6 N 2 O 1

1 2
C    1.884076  -0.031199   0.001776
N    4.631133  -0.072225   0.016308
C    5.733958   2.081855   0.014532
N    4.813265   4.500458   0.002551
C    6.735683   6.174926   0.006614
C    8.821676   4.781725   0.021618
O    8.366573   2.168744   0.027892
H    1.178906  -1.975312  -0.013682
H    1.147461   0.909620  -1.687922
H    1.131001   0.889759   1.695065
H    2.974901   4.976934  -0.009071
H    6.489093   8.198067  -0.001512
H   10.779829   5.320221   0.030066

