%chk=mol_6908.chk
# wB97XD/Def2SVP opt pop=full gfinput

C 7 H 10

1 2
C    2.402692  -0.388565   0.396616
C    5.155059  -0.282042  -0.195190
C    6.084408  -0.917727  -2.809758
C    6.178516   1.783618  -1.884511
C    8.643890   3.019612  -1.237808
C    9.494381   4.162273  -3.565271
C   10.195374   5.104056  -5.483607
H    1.969151   0.866364   1.982020
H    1.864026  -2.312288   0.930293
H    1.236882   0.183190  -1.214168
H    6.293071  -0.899188   1.393560
H    4.713979  -1.375985  -4.262599
H    7.842628  -1.957624  -2.976508
H    4.816836   3.113683  -2.653761
H   10.023258   1.651621  -0.524323
H    8.344993   4.446204   0.230263
H   10.819854   5.943624  -7.204014

