%chk=mol_6062.chk
# wB97XD/Def2SVP opt pop=full gfinput

C 4 H 6 N 2 O 1

1 2
O    1.600749   0.064288   0.312806
C    3.926284   0.032711   0.161231
C    5.443375   2.414673  -0.252071
N    7.967992   2.014467   0.801471
N    9.361779   0.019974   0.011490
C    8.135271  -2.089584  -0.246779
C    5.360246  -2.415599   0.195700
H    4.520319   3.980330   0.732798
H    5.538352   2.821418  -2.277196
H    9.002995   3.642579   0.667017
H    9.210468  -3.794079  -0.777036
H    4.625199  -3.631676  -1.306576
H    5.095401  -3.351864   2.018643

