%chk=mol_0996.chk
# wB97XD/Def2SVP opt pop=full gfinput

C 4 H 11 N 1 O 1

1 2
C    1.723752   0.025360   0.018803
C    4.608891   0.009600   0.112779
C    5.524199  -1.566904   2.356602
O    5.508892  -1.175863  -2.150470
C    5.644612   2.745810   0.179940
N    8.400532   2.799440  -0.194150
H    1.045245   1.045075  -1.651810
H    0.911736   0.911925   1.703286
H    0.977631  -1.900913  -0.135153
H    4.966691  -0.717208   4.159382
H    7.582186  -1.792651   2.340086
H    4.743099  -3.484296   2.271073
H    7.191220  -0.445597  -2.421041
H    5.152735   3.684909   1.958550
H    4.805479   3.836220  -1.368275
H    9.270845   2.067058   1.362814
H    8.975009   4.638749  -0.287579

