%chk=mol_2102.chk
# wB97XD/Def2SVP opt pop=full gfinput

C 4 H 5 N 3

1 2
N    3.240843  -1.316478   0.682021
C    4.328947   0.668642  -0.244738
C    3.862865   0.947414  -2.949107
N    3.567841   1.283011  -5.098330
N    5.768351   2.336438   1.160651
C    7.994637   3.518481  -0.005556
C    5.686413   5.044189   0.548304
H    3.668412  -1.357938   2.573845
H    8.417274   2.989736  -1.933417
H    9.584993   3.649949   1.272409
H    5.675018   6.234282   2.210621
H    4.456635   5.607706  -0.983036

