%chk=mol_3890.chk
# wB97XD/Def2SVP opt pop=full gfinput

C 5 H 9 N 1 O 1

1 2
C    1.806144   0.185590  -0.400830
C    4.581301  -0.029839   0.028799
C    6.193048  -1.528221  -1.767536
C    6.413674   1.319407  -1.702020
C    8.697408   2.511540  -0.630545
N   10.780661   2.313743  -1.883282
O   12.694689   3.569315  -0.558452
H    1.074385   1.884000   0.525079
H    0.833615  -1.454711   0.399961
H    1.334260   0.294911  -2.412368
H    5.029222  -0.153389   2.024804
H    5.321866  -2.372135  -3.418590
H    7.734932  -2.634656  -0.991766
H    5.632518   2.332300  -3.306189
H    8.532454   3.532125   1.180058
H   14.163233   3.295550  -1.638600

