%chk=mol_3452.chk
# wB97XD/Def2SVP opt pop=full gfinput

C 5 H 12 O 2

1 2
C    3.902171  -1.580359   1.274242
O    3.693281   0.338885  -0.589160
C    5.105095   2.588585  -0.075721
C    4.536722   4.441083  -2.235017
C    4.260444   3.823880   2.406717
O    7.761483   2.120197   0.149024
C    8.922568   1.100180  -2.044967
H    2.997710  -3.286612   0.535454
H    2.905265  -1.041164   3.003757
H    5.876954  -2.028243   1.691740
H    4.881503   3.570203  -4.081430
H    5.717574   6.136073  -2.108443
H    2.543231   5.001236  -2.227534
H    4.825963   2.686472   4.042937
H    2.205235   4.050364   2.479170
H    5.155929   5.674753   2.658807
H   10.839658   0.517294  -1.536952
H    9.073180   2.531458  -3.527117
H    7.908428  -0.558887  -2.745564

