%chk=mol_3295.chk
# wB97XD/Def2SVP opt pop=full gfinput

C 5 H 10 O 2

1 2
C    1.319898   3.085961  -1.074196
C    4.093449   3.554235  -1.619817
O    5.538768   2.350252   0.304303
C    8.191396   2.654687  -0.078783
O    9.050106   5.215342  -0.034941
C    8.911817   6.522428   2.183786
C    7.943388   5.802234   4.404253
H    0.124684   4.008884  -2.484820
H    0.817099   3.800050   0.800431
H    0.911434   1.057925  -1.075840
H    4.461284   5.590962  -1.622349
H    4.591052   2.771302  -3.471540
H    8.704419   1.846244  -1.914746
H    9.199376   1.547440   1.354046
H    9.725759   8.385773   1.919886
H    7.081484   3.967726   4.699144
H    7.958714   7.089402   5.999144

