%chk=mol_6494.chk
# wB97XD/Def2SVP opt pop=full gfinput

C 4 H 5 N 1 O 1 S 1

1 2
C    1.672823   0.019351  -0.006501
C    4.473870   0.109888  -0.008542
C    6.114436   2.126093  -0.003307
O    5.294200   4.535286   0.005650
C    8.668836   1.292403  -0.008409
N    9.041300  -1.194571  -0.017574
S    6.236134  -2.608427  -0.020069
H    0.858654   1.921474   0.016554
H    0.971678  -0.984377   1.661995
H    0.968787  -0.945487  -1.696558
H    6.716030   5.700604   0.008145
H   10.334005   2.477204  -0.005801

