%chk=mol_1190.chk
# wB97XD/Def2SVP opt pop=full gfinput

C 6 H 11 N 1

1 2
C    1.794673   0.010431   0.030576
C    4.667284   0.017385   0.030500
C    5.720938   2.707637   0.000000
C    8.449702   2.707637   0.000000
C   10.698779   2.707637   0.000000
C   13.427544   2.707637   0.000000
N   14.374353   5.290401   0.034355
H    1.083361  -1.931451   0.052591
H    1.049819   0.947376  -1.657384
H    1.049819   0.985379   1.696898
H    5.349833  -1.031242  -1.621461
H    5.349833  -0.993524   1.705799
H    5.018678   3.744965   1.650411
H    5.018697   3.707284  -1.673523
H   14.148739   1.736583  -1.679305
H   14.153520   1.699752   1.654304
H   13.678424   6.223624  -1.498118
H   16.286057   5.260128  -0.166145

