%chk=mol_5543.chk
# wB97XD/Def2SVP opt pop=full gfinput

C 4 H 6 N 2 O 1

1 2
N    2.154080  -0.118939   0.706701
C    4.512194  -0.045845   0.157849
C    5.931359   2.409193  -0.158057
C    8.459681   1.504354  -1.126787
O   10.220754   2.884327  -1.716986
C    8.497022  -1.372130  -1.297373
N    6.042154  -2.079020  -0.262162
H    1.575087  -1.957057   0.852380
H    6.140079   3.349653   1.665548
H    4.995226   3.605484  -1.554772
H    8.653245  -1.952446  -3.272288
H   10.024355  -2.140398  -0.143222
H    5.289532  -3.772385  -0.734574

