%chk=mol_3844.chk
# wB97XD/Def2SVP opt pop=full gfinput

C 5 H 9 N 1 O 1

1 2
C    3.049829  -0.256228  -0.219870
C    1.371129  -2.230330   1.083626
O   -0.853457  -2.858400  -0.306646
C   -2.714044  -1.067601  -0.303944
C   -2.547634   1.401402   0.240505
C   -0.206226   2.908232   0.743343
N    1.898910   2.178552  -0.862547
H    3.775087  -1.061232  -1.983835
H    4.687239   0.090367   1.002254
H    2.462729  -3.982503   1.265115
H    0.876852  -1.672634   3.021200
H   -4.487967  -1.937744  -0.851605
H   -4.288753   2.493626   0.193735
H    0.286690   2.877316   2.754427
H   -0.648611   4.883241   0.294835
H    3.244357   3.552591  -0.876172

