%chk=mol_5190.chk
# wB97XD/Def2SVP opt pop=full gfinput

C 4 H 8 N 2 O 1

1 2
C    1.649995   0.621663   0.189615
N    4.369633   0.144299   0.223668
C    5.697940   2.184996   0.024793
N    8.303967   2.256446   0.013530
O    9.409589  -0.142429   0.243680
C    9.845379   4.339491  -0.187858
C   12.371489   4.425021  -0.199990
H    0.664900  -1.041371   0.924794
H    0.993335   0.948454  -1.744538
H    1.119719   2.231351   1.379424
H    4.835979   4.078766  -0.163461
H    7.928913  -1.254551   0.351848
H    8.791327   6.094499  -0.353322
H   13.486503   2.710718  -0.038475
H   13.369434   6.205709  -0.371048

