%chk=mol_6424.chk
# wB97XD/Def2SVP opt pop=full gfinput

C 5 H 6 O 1 S 1

1 2
C    1.636843   0.186289  -0.015647
C    4.450589   0.105938   0.000000
C    6.133805   2.096651   0.007597
C    8.693024   1.257877   0.022053
C    8.880315  -1.332408   0.024812
O   10.971315  -2.718371   0.037152
S    5.985405  -2.742276   0.009808
H    0.953216   2.139737  -0.001739
H    0.865022  -0.765093   1.651980
H    0.885715  -0.734555  -1.709654
H    5.565735   4.063611   0.003099
H   10.325652   2.490395   0.029914
H   10.375711  -4.457486   0.034752

