%chk=mol_5555.chk
# wB97XD/Def2SVP opt pop=full gfinput

C 4 H 10 N 2 O 1

1 2
N    1.873078   0.070884  -0.070714
C    4.631360   0.035470   0.082241
C    5.766707   2.085143   1.768708
N    8.370674   1.203321   2.208107
C    8.109325  -1.540675   2.628420
C    5.694274  -2.397647   1.257140
O    6.191763  -4.236048  -0.653108
H    1.288245  -1.487044  -1.049819
H    1.291741   1.604755  -1.078901
H    5.365688   0.243888  -1.847963
H    4.767231   2.239496   3.578990
H    5.746695   3.944085   0.860940
H    9.395756   1.491674   0.601481
H    9.799685  -2.543893   1.983589
H    7.912132  -1.874287   4.663088
H    4.373809  -3.231923   2.618442
H    7.511454  -3.569995  -1.746031

