%chk=mol_2395.chk
# wB97XD/Def2SVP opt pop=full gfinput

C 5 H 8 O 2

1 2
C    1.882659  -0.009014   0.065725
C    4.747502   0.058582   0.009694
C    5.839877   2.183730   1.583534
C    8.404387   1.155454   2.272679
O    8.038763  -1.501369   2.561845
C    5.935970  -2.218576   1.241456
O    5.208331  -4.396788   1.054562
H    1.168437  -1.573953  -1.084665
H    1.090410   1.750680  -0.678544
H    1.165791  -0.283950   1.988275
H    5.441561   0.164463  -1.939350
H    4.720687   2.472102   3.305358
H    5.941299   3.985697   0.576801
H    9.805940   1.472494   0.783480
H    9.109557   1.959457   4.041066

