%chk=mol_3425.chk
# wB97XD/Def2SVP opt pop=full gfinput

C 5 H 8 O 2

1 2
C    3.536811   0.087834  -1.304497
O    6.047105   1.039387  -1.127297
C    6.375350   3.506613  -0.357687
C    4.521699   5.135784   0.238559
C    9.116171   4.256476  -0.175631
C   10.238649   4.354534  -2.792354
O   11.445599   6.168387  -3.599569
H    3.645735  -1.871566  -1.954581
H    2.434232   1.156758  -2.690195
H    2.612849   0.095450   0.546679
H    2.533782   4.657910   0.153087
H    4.954295   7.048093   0.847580
H   10.170809   2.866526   0.939553
H    9.355751   6.106782   0.720231
H   10.047088   2.620918  -3.938057

