%chk=mol_4782.chk
# wB97XD/Def2SVP opt pop=full gfinput

C 4 H 10 N 2 O 1

1 2
C    2.124695  -0.285349  -0.993807
C    4.825302  -0.252486  -0.013512
N    5.732106   2.352633   0.204544
N    8.142811   2.614720   1.018166
C    8.921869   4.937949   1.026405
C   11.568979   5.560274   1.915067
O   13.058442   3.386276   2.359966
H    1.455259  -2.234185  -1.168437
H    1.996250   0.603522  -2.857323
H    0.848317   0.713693   0.291868
H    6.039640  -1.312585  -1.313927
H    4.901496  -1.184896   1.834981
H    4.488553   3.361218   1.287830
H    7.724426   6.543932   0.439021
H   11.429668   6.657770   3.661288
H   12.487859   6.727992   0.479594
H   11.898811   1.949895   2.228025

