%chk=mol_6407.chk
# wB97XD/Def2SVP opt pop=full gfinput

C 4 H 7 N 1 O 2

1 2
O    4.453688  -0.685423   0.746007
N    6.236814   1.249336   0.451437
C    8.469299   0.280738   0.530371
O   10.624494   1.632667   0.303074
C   10.314446   4.303190  -0.010582
C   12.902843   5.433983  -0.188935
C   13.802597   7.227900   1.356899
H    2.855225   0.230377   0.664806
H    8.892749  -1.742176   0.785446
H    9.264912   5.086103   1.595647
H    9.287853   4.685746  -1.769369
H   14.103971   4.717758  -1.693856
H   12.677606   7.994940   2.891035
H   15.705381   7.956673   1.119058

