%chk=mol_1735.chk
# wB97XD/Def2SVP opt pop=full gfinput

C 6 H 13 N 1

1 2
C    1.985006  -0.160797   0.742247
N    4.719270   0.145566   0.818176
C    5.536482   2.744563   0.296611
C    4.645608   4.622743   2.308470
C    8.384715   2.741804   0.224084
C    9.778558   3.486601  -1.761981
C   12.601450   3.482104  -1.789155
H    1.520984  -2.170426   0.906426
H    1.182307   0.527725  -1.035664
H    1.065617   0.796727   2.326990
H    5.497818  -0.996679  -0.526629
H    4.798865   3.342434  -1.547894
H    5.183292   4.014478   4.214505
H    2.590172   4.856729   2.267577
H    5.474971   6.494252   1.989334
H    9.326687   2.088072   1.933284
H    8.851780   4.145039  -3.475358
H   13.400501   2.803428  -0.005915
H   13.304976   5.398022  -2.121955
H   13.290085   2.262248  -3.310044

