%chk=mol_2211.chk
# wB97XD/Def2SVP opt pop=full gfinput

C 5 H 10 O 2

1 2
C   -2.687927   1.364363   0.311918
C   -2.748456  -1.460324  -0.226578
O   -0.533564  -2.757904   0.580921
C    1.611672  -2.222204  -0.957581
C    3.118842   0.045335   0.009354
O    1.778308   2.329938   0.494938
C   -0.469219   2.725533  -0.913267
H   -4.459886   2.196089  -0.366815
H   -2.595029   1.645725   2.363197
H   -3.092234  -1.830937  -2.236567
H   -4.339435  -2.294808   0.804173
H    2.835685  -3.891494  -0.903232
H    1.050763  -1.972836  -2.936937
H    4.031636  -0.464495   1.794994
H    4.630661   0.478498  -1.335413
H   -0.842950   4.761883  -0.839057
H   -0.214068   2.240308  -2.911237

