%chk=mol_6405.chk
# wB97XD/Def2SVP opt pop=full gfinput

C 4 H 7 N 1 O 2

1 2
O    4.002761  -0.028327  -3.428984
N    3.535829   1.584101  -1.360282
C    1.300906   1.254721  -0.095904
O   -0.407444  -0.140955  -0.809237
C    5.772055   2.709300  -0.392383
C    7.395859   4.391402  -2.017453
C    5.915485   5.505471   0.126120
H    2.416582  -0.979275  -3.528780
H    1.199655   2.352180   1.672124
H    6.771720   1.468487   0.904839
H    6.768999   4.770708  -3.931292
H    9.427012   4.232363  -1.818408
H    6.948617   6.122486   1.783051
H    4.305987   6.680049  -0.349108

