%chk=mol_0330.chk
# wB97XD/Def2SVP opt pop=full gfinput

C 5 H 5 N 1

1 2
C    2.541115  -0.673914  -1.428274
C    4.838398  -0.277166  -0.450360
C    6.099393   2.140304  -0.570981
C    8.401722   2.545990   0.406688
C    9.602171   4.944355   0.262880
N   10.587890   6.897368   0.149666
H    1.658159  -2.521953  -1.297392
H    1.479561   0.803833  -2.376595
H    5.806108  -1.836965   0.477704
H    5.099728   3.678465  -1.507812
H    9.440392   1.052483   1.348792

