%chk=mol_6683.chk
# wB97XD/Def2SVP opt pop=full gfinput

C 5 H 4 O 1 S 1

1 2
O    5.011818  -2.244333   0.174422
C    3.997659  -0.165446   0.018538
C    5.391407   2.202192  -0.003742
C    4.243323   4.541257  -0.179562
S    6.371986   6.977757  -0.160192
C    8.863137   4.936872   0.083942
C    8.083983   2.454660   0.148835
H    1.923571   0.000869  -0.115349
H    2.247546   4.961646  -0.320157
H   10.776919   5.650300   0.168205
H    9.376575   0.871107   0.299257

