%chk=mol_1993.chk
# wB97XD/Def2SVP opt pop=full gfinput

C 5 H 8 N 2

1 2
N    4.020033  -0.816796  -2.514848
C    4.708328  -0.121698   0.058204
C    5.645065   2.534803   0.038796
C    4.213598   4.711617  -0.181716
N    5.798322   6.755431  -0.121037
C    8.238922   5.939353   0.150366
C    8.206873   3.340204   0.251900
H    3.676330  -2.705540  -2.582292
H    5.530813  -0.487871  -3.661420
H    6.174057  -1.401440   0.764678
H    3.061281  -0.297027   1.298658
H    2.195446   4.959095  -0.401019
H    5.249376   8.580093  -0.261538
H    9.784511   7.273953   0.240789
H    9.851823   2.141419   0.455330

