%chk=mol_5394.chk
# wB97XD/Def2SVP opt pop=full gfinput

C 4 H 11 N 1 O 2

1 2
C    2.114358  -0.441818   0.531315
O    4.750526   0.031105   0.724067
C    5.419262   2.659393   0.384465
C    4.483262   4.335825   2.579722
N    5.386796   3.485335   5.052863
C    8.304817   2.767428   0.117957
O    9.056683   1.348301  -2.059367
H    1.836871  -2.484517   0.385958
H    1.311678   0.451852  -1.150276
H    1.136651   0.213804   2.230897
H    4.577313   3.304677  -1.397415
H    2.413237   4.334257   2.615986
H    5.085310   6.293185   2.277536
H    5.071930   1.585575   5.202888
H    4.361469   4.328682   6.446196
H    9.259167   1.926406   1.749792
H    8.968999   4.710294  -0.125799
H    8.243835  -0.297594  -1.848492

