%chk=mol_4622.chk
# wB97XD/Def2SVP opt pop=full gfinput

C 5 H 9 N 1 O 1

1 2
C    2.175642   0.102952   1.604132
C    4.651410   1.026140   0.486850
C    4.568092   1.174257  -2.371266
O    2.699266   0.663804  -3.646623
N    6.883498   1.990789  -3.342680
C    6.954343   3.743491  -5.411155
C    7.755795   1.078523  -5.744238
H    2.284263   0.070638   3.669225
H    1.734939  -1.810206   0.949323
H    0.605260   1.335999   1.058946
H    6.181521  -0.253431   1.041277
H    5.078639   2.912956   1.225109
H    8.373055   5.195858  -5.194971
H    5.132440   4.333331  -6.128968
H    6.503625  -0.220663  -6.708622
H    9.747169   0.627880  -5.771715

