%chk=mol_1059.chk
# wB97XD/Def2SVP opt pop=full gfinput

C 6 H 12

1 2
C    5.076163  -1.967658   2.383493
C    6.150567  -0.793628  -0.008636
C    5.964165   2.038240   0.054122
C    7.965611   3.591217  -0.067520
C    7.777924   6.422537  -0.025757
C    9.181706   7.532770   2.222167
H    5.224507  -4.029123   2.294581
H    3.078175  -1.482887   2.624867
H    6.102890  -1.323526   4.060681
H    5.100371  -1.491145  -1.650392
H    8.116128  -1.401874  -0.243321
H    4.068902   2.828485   0.189256
H    9.858286   2.801443  -0.224537
H    5.800288   7.035262   0.035036
H    8.588767   7.167675  -1.779952
H    8.390819   6.849917   4.009356
H    9.037218   9.596181   2.205575
H   11.189503   7.033806   2.173676

