%chk=mol_0560.chk
# wB97XD/Def2SVP opt pop=full gfinput

C 6 H 8

1 2
C    1.800758  -0.041687   0.022355
C    4.068542  -0.013323   0.020069
C    6.801918   0.021373   0.010393
C    8.063575   1.993378   1.775379
C   10.108901  -0.009524   2.325384
C    8.114351  -2.024955   1.649202
H   -0.213596  -0.066821   0.024907
H    7.581449   0.091614  -1.913386
H    6.951433   2.515566   3.445027
H    8.737885   3.717507   0.857369
H   11.711577   0.051911   1.014840
H   10.820836  -0.061341   4.262958
H    8.831295  -3.670528   0.625405
H    7.017082  -2.678781   3.281925

