%chk=mol_2182.chk
# wB97XD/Def2SVP opt pop=full gfinput

C 6 H 8 O 1

1 2
C    0.762429   2.922424   0.702090
C    2.774628   0.906842   0.030803
C    1.207478  -1.005882  -1.478730
O   -0.491480   0.707306  -2.786590
C   -1.609839   1.818313  -0.538685
C   -2.389502  -0.548096   0.816929
C   -0.648063  -2.292767   0.236726
H    1.279515   4.724712  -0.174611
H    0.563762   3.206601   2.740405
H    3.677048   0.088685   1.702246
H    4.233799   1.765288  -1.160745
H    2.223376  -2.228119  -2.790974
H   -3.127289   3.132712  -1.007130
H   -3.978951  -0.752224   2.073143
H   -0.532260  -4.204622   0.924038

