%chk=mol_1285.chk
# wB97XD/Def2SVP opt pop=full gfinput

C 6 H 11 N 1

1 2
C    1.904750  -0.414984   0.056522
C    4.766778  -0.063268   0.056163
C    5.720938   2.707637   0.000000
C    4.756365   4.120189  -2.344886
N    4.870448   4.087723   2.243766
C    8.449702   2.707637   0.000000
C   10.698779   2.707637   0.000000
H    1.451026  -2.432040   0.116086
H    1.040842   0.362317  -1.652906
H    1.023136   0.467896   1.704835
H    5.533288  -1.085194  -1.579490
H    5.529924  -1.029598   1.727607
H    5.284128   3.124511  -4.084189
H    5.561559   6.027830  -2.468266
H    2.696488   4.327152  -2.338763
H    5.439765   3.139742   3.819118
H    2.951015   4.142941   2.298323
H   12.711791   2.725287   0.007068

