%chk=mol_5987.chk
# wB97XD/Def2SVP opt pop=full gfinput

C 4 H 5 N 1 O 2

1 2
O    1.733729  -0.285783   0.079161
C    4.059926  -0.192412   0.019899
C    5.333488   2.321718  -0.101516
C    8.158571   2.338177  -0.078121
C    9.284376  -0.212726   0.006387
N    8.090919  -2.332470   0.051476
O    5.437971  -2.345868   0.024529
H    4.642830   3.437053   1.503164
H    4.667359   3.260609  -1.824342
H    8.872377   3.398597   1.551786
H    8.899684   3.303090  -1.755952
H   11.368157  -0.294722   0.032012

