%chk=mol_4466.chk
# wB97XD/Def2SVP opt pop=full gfinput

C 5 H 13 N 1 O 1

1 2
C    1.920113  -0.429648  -0.145207
C    4.818632  -0.440930   0.064288
C    5.599183  -2.042341   2.353881
N    5.872437  -1.621914  -2.226022
C    5.775249   2.317730   0.297141
C    8.643607   2.633182   0.488853
O    9.873309   1.751757  -1.727361
H    1.282878   0.658702  -1.788626
H    1.060174   0.417592   1.537954
H    1.164355  -2.349591  -0.332233
H    4.949646  -1.175466   4.118866
H    7.652673  -2.269901   2.479963
H    4.782481  -3.944539   2.256465
H    5.166587  -0.723179  -3.787143
H    5.232312  -3.439717  -2.362347
H    4.911568   3.201820   1.962632
H    5.119457   3.389885  -1.355614
H    9.420700   1.634084   2.122786
H    9.112222   4.636802   0.709479
H    9.039769   0.149269  -2.162092

