%chk=mol_1749.chk
# wB97XD/Def2SVP opt pop=full gfinput

C 6 H 15 N 1

1 2
C    1.747108   3.265844   1.946928
N    4.474059   3.589875   2.144197
C    5.777214   2.378409   0.022242
C    8.694800   2.704387   0.098984
C    9.835344   1.469716   2.473085
C    9.820358   1.400684  -2.249398
C    9.425406   5.519096   0.037473
H    0.825470   4.200030   3.545618
H    1.215982   1.266268   1.986480
H    1.012515   4.128314   0.215618
H    5.077505   2.818659   3.802053
H    5.066469   3.182299  -1.753458
H    5.322489   0.354229   0.000926
H    9.236943   2.431473   4.204414
H   11.904689   1.535705   2.422912
H    9.274417  -0.517539   2.621031
H    9.082666   2.236151  -3.994409
H    9.363649  -0.618753  -2.273170
H   11.882844   1.579433  -2.291387
H    8.625107   6.460426  -1.623823
H   11.481825   5.751797  -0.038872
H    8.753438   6.520670   1.719292

