%chk=mol_6143.chk
# wB97XD/Def2SVP opt pop=full gfinput

C 4 H 5 N 1 O 2

1 2
O    4.305987  -1.028105  -2.486105
C    4.478708  -0.066065   0.012964
C    5.426877   2.555798   0.006406
C    4.068883   4.770651  -0.013587
O    5.663717   6.775877   0.012926
N    8.135687   5.913955   0.036434
C    7.958601   3.397255   0.004176
H    3.644885  -2.736399  -2.357660
H    5.746298  -1.292100   1.096703
H    2.601303  -0.161118   0.879441
H    2.080645   5.228664  -0.044635
H    9.675530   2.290499  -0.011924

