%chk=mol_2359.chk
# wB97XD/Def2SVP opt pop=full gfinput

C 6 H 10 O 1

1 2
C    1.892372   0.019785  -0.087740
C    4.758311  -0.039911   0.094694
C    5.821320   2.109501   1.710221
C    8.512026   1.285959   2.314612
C    8.235729  -1.543075   2.442792
O    9.846871  -2.958669   3.310592
C    5.751760  -2.436594   1.371053
H    1.203075  -1.559194  -1.232101
H    1.254173   1.778931  -0.968825
H    1.011759  -0.113705   1.779763
H    5.560670   0.095545  -1.815252
H    4.734312   2.313195   3.464832
H    5.777138   3.927210   0.723576
H    9.813802   1.766232   0.783896
H    9.168082   2.060935   4.111269
H    6.041549  -3.960979   0.007823
H    4.540086  -3.063435   2.924805

