%chk=mol_7106.chk
# wB97XD/Def2SVP opt pop=full gfinput

C 6 H 7 N 1

1 2
C    1.980017  -0.222477   0.642923
C    4.721575  -0.118826  -0.142712
C    5.813157  -2.224132  -1.065465
C    6.081441   2.299948   0.096905
C    5.192420   4.266586   1.444696
C    8.449438   2.640117  -1.188732
N   10.364335   2.937466  -2.220050
H    0.878760   1.229342  -0.340472
H    1.787851   0.052704   2.685169
H    1.109591  -2.046573   0.190012
H    4.766116  -3.982938  -1.235673
H    7.773521  -2.306297  -1.670499
H    3.428001   4.205642   2.483213
H    6.239573   6.031628   1.566791

