%chk=mol_0600.chk
# wB97XD/Def2SVP opt pop=full gfinput

C 5 H 8 O 1

1 2
C    1.512197   2.649491  -1.080073
C   -0.649329   1.676055   0.492859
C   -2.569442  -0.102442  -0.546622
O   -1.425534  -2.567477  -0.526818
C    1.276038  -2.265574  -0.535435
C    1.794673   0.300655   0.498529
H    1.409490   2.458156  -3.116196
H    2.466282   4.349526  -0.445219
H   -1.233538   2.669333   2.175283
H   -4.279058  -0.165842   0.611232
H   -3.089116   0.375923  -2.490168
H    2.103832  -3.757418   0.629147
H    1.962499  -2.466470  -2.476392
H    2.939809   0.321102   2.187037

