%chk=mol_6170.chk
# wB97XD/Def2SVP opt pop=full gfinput

C 6 H 13 N 1

1 2
C    1.738019   0.024869   0.147493
C    4.598894   0.055747   0.043199
C    5.949368   1.980093   1.786075
C    7.987135  -0.064685   2.311437
C   10.365602  -0.013228   0.678771
N   12.019773   2.054964   1.454258
C    5.983534  -2.054586   1.521267
H    0.990405  -1.588145  -0.909223
H    0.961682   1.749130  -0.690563
H    1.045075  -0.108489   2.092456
H    5.256273   0.190919  -1.921946
H    4.868577   2.504926   3.475717
H    6.590741   3.710761   0.856688
H    8.486741  -0.216544   4.320292
H    9.905245   0.190503  -1.329309
H   11.394651  -1.794767   0.901343
H   11.154845   3.740543   1.103676
H   13.609203   2.038315   0.365246
H    6.664062  -3.637779   0.379381
H    4.913175  -2.815163   3.125853

