%chk=mol_0413.chk
# wB97XD/Def2SVP opt pop=full gfinput

C 4 H 6 N 2

1 2
C    1.724281  -0.620473  -0.179467
C    4.235538  -0.353549  -0.097510
C    5.382507   2.188605  -0.165181
N    7.806232   2.498672  -0.087116
N    8.423019   5.054167  -0.175197
C   10.841454   5.352347  -0.093919
H    0.879573  -2.489261  -0.129616
H    0.452741   0.985020  -0.296347
H    5.510064  -1.951690   0.019313
H    4.066615   3.805908  -0.285254
H   11.650672   7.267547  -0.146416
H   12.182308   3.760215   0.028384

