%chk=mol_1640.chk
# wB97XD/Def2SVP opt pop=full gfinput

C 5 H 8 N 2

1 2
C    2.023179  -0.027193   0.122908
N    4.776226   0.014872  -0.022715
C    5.833585   1.933473   1.732104
C    7.888492  -0.013152   2.416714
C    5.896305  -2.004546   1.620251
C    6.855945  -4.140560   0.188255
N    7.622985  -5.883228  -0.900681
H    1.287168  -1.659482  -0.915251
H    1.246841   1.670008  -0.771991
H    1.291137  -0.118694   2.059235
H    4.627731   2.462578   3.334611
H    6.521388   3.654919   0.817873
H    9.574449   0.091463   1.214187
H    8.471340  -0.047640   4.398224
H    4.701034  -2.589681   3.215293

