%chk=mol_4731.chk
# wB97XD/Def2SVP opt pop=full gfinput

C 5 H 5 N 1 O 1

1 2
C    1.224807   0.626369  -0.046941
C    3.724915   0.346557  -0.316283
N    4.717418  -2.005018  -0.748558
C    7.200839  -2.636262  -1.066996
O    7.893084  -4.813643  -1.446472
C    5.325135   2.504379  -0.149269
C    6.666198   4.330043  -0.006916
H    0.391551   2.470912   0.297254
H   -0.069032  -0.959433  -0.158850
H    3.527949  -3.499716  -0.857123
H    8.542186  -1.050933  -0.958809
H    7.852304   5.951126   0.119903

