%chk=mol_5163.chk
# wB97XD/Def2SVP opt pop=full gfinput

C 4 H 8 N 2 O 1

1 2
C    1.711449  -0.328661   0.307553
N    4.376587  -0.070449  -0.473981
C    5.416012  -2.650889  -0.800753
C    8.253038  -2.518684  -1.100577
O    9.730729  -3.898127   0.052364
N    4.784843   1.506584  -2.478149
C    4.719591   3.876849  -1.887458
H    0.916649   1.515598   0.810163
H    1.536517  -1.523157   1.989428
H    0.557961  -1.133987  -1.211995
H    4.622005  -3.570902  -2.476769
H    5.029469  -3.818513   0.865495
H    8.960741  -1.225979  -2.574714
H    5.018961   5.309318  -3.366925
H    4.380498   4.582548   0.046752

