%chk=mol_7020.chk
# wB97XD/Def2SVP opt pop=full gfinput

C 6 H 13 N 1

1 2
C    2.008930   0.188273  -0.765075
C    4.701676  -0.769837  -1.052766
C    6.531933   0.688333   0.648932
C    9.233315  -0.238332   0.403948
C   10.602516   0.550477  -1.962632
C   10.777675  -0.496223   2.804958
N    9.825687  -2.722283   1.496663
H    0.731135  -0.890174  -1.982927
H    1.871528   2.182993  -1.297486
H    1.353479  -0.010356   1.187353
H    5.270295  -0.598061  -3.034900
H    4.757064  -2.787063  -0.586155
H    5.891939   0.529388   2.616042
H    6.467569   2.706806   0.180733
H   12.553318  -0.141805  -2.003034
H   10.669582   2.616269  -2.094667
H    9.647845  -0.176274  -3.648324
H    9.898291  -0.077044   4.605773
H   12.800892  -0.190522   2.742314
H   11.227581  -3.603235   0.504897

