%chk=mol_0051.chk
# wB97XD/Def2SVP opt pop=full gfinput

C 2 H 5 N 1 O 1

1 2
C    1.805331  -0.653789   0.056862
O    4.402363  -0.125988  -0.398109
N    4.694930   2.498747  -0.627238
C    7.045995   2.983575  -1.039576
H    1.576088  -2.698888   0.235498
H    0.651653   0.011074  -1.525387
H    1.189961   0.242603   1.815913
H    7.674329   4.952216  -1.277228
H    8.505733   1.500877  -1.171876

