%chk=mol_2376.chk
# wB97XD/Def2SVP opt pop=full gfinput

C 7 H 8

1 2
C    4.358219   1.218155   4.235330
C    5.668933   0.382197   2.581687
C    7.297234  -0.632321   0.571472
C    8.818010   1.443619  -0.751998
C   10.739068   2.785003   0.946469
C   12.769465   1.084873   1.789174
C   14.422617  -0.302167   2.493399
H    3.208793   1.965844   5.709599
H    6.109201  -1.579471  -0.838188
H    8.557020  -2.082176   1.343652
H    7.513324   2.863313  -1.517601
H    9.802897   0.606319  -2.374290
H    9.800119   3.633792   2.584730
H   11.579467   4.350320  -0.120357
H   15.883583  -1.533834   3.127667

