%chk=mol_0034.chk
# wB97XD/Def2SVP opt pop=full gfinput

C 3 H 6 O 1

1 2
C    1.897474  -0.008466  -0.110020
C    4.687768  -0.269248   0.089630
C    6.204236  -1.456733  -2.001144
O    6.090361   1.235219  -1.666209
H    1.227188   1.477860   1.162786
H    0.978198  -1.781067   0.429119
H    1.295672   0.471884  -2.031153
H    5.364593  -0.406480   2.011651
H    5.222315  -2.253498  -3.609169
H    7.959167  -2.390107  -1.517526

