%chk=mol_6825.chk
# wB97XD/Def2SVP opt pop=full gfinput

C 5 H 10 N 2

1 2
C    1.749886   0.010923   0.575762
C    4.604733   0.041971   0.137515
C    5.353046   2.337232  -1.446075
N    7.973794   2.017944  -2.236472
N    8.550406   0.015836  -3.721003
C    7.393894  -2.073748  -3.170053
C    5.497176  -2.431473  -1.074290
H    1.125445   1.753723   1.500480
H    1.207157  -1.582570   1.778365
H    0.721668  -0.162233  -1.214546
H    5.524860   0.204223   1.992130
H    5.177264   4.059434  -0.311049
H    4.132812   2.556781  -3.104688
H    8.631702   3.642750  -3.048601
H    7.846294  -3.763579  -4.302604
H    3.915097  -3.503722  -1.872738
H    6.373215  -3.653049   0.353473

