%chk=mol_2862.chk
# wB97XD/Def2SVP opt pop=full gfinput

C 6 H 12 O 1

1 2
C    2.019078  -0.122039   0.306325
C    4.885830  -0.324882   0.265941
C    6.126435   2.283961   0.081069
C    9.018340   2.119385  -0.042330
C   10.165328   4.672348  -0.735916
C   10.071692   1.324585   2.492133
O   11.347957  -0.586325   2.797040
H    1.168418  -2.006303   0.347747
H    1.319445   0.860695  -1.373850
H    1.375418   0.910432   1.978600
H    5.458247  -1.486591  -1.351324
H    5.515695  -1.304024   1.978694
H    5.542340   3.438017   1.702209
H    5.421587   3.233737  -1.622009
H    9.591721   0.721119  -1.458302
H    9.680311   6.125132   0.656812
H    9.494248   5.303611  -2.588811
H   12.231176   4.550631  -0.813149
H    9.635165   2.578626   4.102104

