%chk=mol_5774.chk
# wB97XD/Def2SVP opt pop=full gfinput

C 4 H 6 N 2 O 1

1 2
N    1.965844  -0.026381   0.638255
C    4.667624   0.000000   0.000000
C    5.012971  -1.363475  -2.510218
N    6.427280  -0.532317  -4.334711
O    6.383835  -2.277082  -6.323118
C    5.578509   2.572238   0.000000
C    6.329260   4.692322   0.000000
H    1.713509   0.990443   2.254424
H    1.420299  -1.824455   1.046190
H    5.674451  -1.114466   1.425931
H    4.061475  -3.215237  -2.684205
H    7.396747  -1.429200  -7.609738
H    6.996843   6.591327  -0.028724

