%chk=mol_0861.chk
# wB97XD/Def2SVP opt pop=full gfinput

C 5 H 8 O 1

1 2
O    1.927237   0.103973  -0.104426
C    4.598894  -0.002872  -0.074058
C    5.557590  -2.417205   1.195800
C    6.162794  -1.692458   3.930800
C    6.427941   1.112368   3.808157
C    5.544664   2.029830   1.625429
H    1.337624  -1.356294  -1.045774
H    5.318313   0.190144  -2.003261
H    7.305587  -3.041703   0.266980
H    4.202826  -3.978346   1.111272
H    7.904025  -2.603211   4.575443
H    4.622327  -2.210772   5.211090
H    7.138800   2.253669   5.345922
H    5.443961   4.013098   1.151637

