%chk=mol_3426.chk
# wB97XD/Def2SVP opt pop=full gfinput

C 5 H 8 O 2

1 2
C    1.700319   1.584592  -0.383312
O    4.118261   1.538974   0.796028
C    5.696542   3.573737   0.273954
C    4.687334   6.178025  -0.211347
O    2.458685   6.778410   0.007559
C    8.194306   3.115592   0.266451
C   10.370931   4.869843  -0.131619
H    0.964781  -0.348409  -0.378304
H    1.813532   2.210299  -2.352974
H    0.382670   2.747681   0.703602
H    6.082443   7.595887  -0.805345
H    8.764456   1.168890   0.632775
H    9.857265   6.866584  -0.109037
H   11.289507   4.450003  -1.936213
H   11.762544   4.586592   1.373925

