%chk=mol_2291.chk
# wB97XD/Def2SVP opt pop=full gfinput

C 6 H 12 O 1

1 2
C    1.981888   0.168337  -0.160835
C    4.796031   0.054859  -0.049738
C    6.360875  -1.350606  -1.995778
C    5.201792  -2.721187  -4.167621
C    6.492362   1.507605  -1.849664
C    5.478827   3.169902  -3.899431
O    8.762414   2.511408  -0.741547
H    1.291987   1.643986   1.111726
H    1.185312  -1.632893   0.466139
H    1.239830   0.566691  -2.043040
H    5.407886  -0.104237   1.902935
H    7.986852  -2.394831  -1.304006
H    3.495993  -1.820468  -4.903405
H    4.696290  -4.642244  -3.591424
H    6.564946  -2.861253  -5.717669
H    3.792907   2.417697  -4.823602
H    6.918136   3.442117  -5.360964
H    4.995510   5.028145  -3.127346
H    9.418867   1.438762   0.597229

