%chk=mol_1198.chk
# wB97XD/Def2SVP opt pop=full gfinput

C 6 H 15 N 1

1 2
C    4.377588  -1.655495  -2.502527
C    3.812806  -0.088779  -0.150082
C    5.172653   2.507345  -0.009600
C    4.305458   4.202713  -2.218898
C    4.413625   3.837543   2.470874
N    7.945769   2.301667  -0.234194
C    9.207482   0.829023   1.717440
H    3.396102  -3.473751  -2.384135
H    6.398121  -2.046384  -2.696828
H    3.721589  -0.711633  -4.220571
H    4.278453  -1.226697   1.519226
H    1.761829   0.213331  -0.062569
H    4.926762   3.466381  -4.051365
H    5.066885   6.122278  -2.041433
H    2.240969   4.357992  -2.271999
H    4.832994   2.675947   4.131886
H    2.380318   4.233856   2.502716
H    5.399949   5.645727   2.692406
H    8.717912   4.068108  -0.272517
H    8.547760  -1.127562   1.773451
H    9.003336   1.676565   3.590933
H   11.232286   0.761125   1.296919

