%chk=mol_2254.chk
# wB97XD/Def2SVP opt pop=full gfinput

C 5 H 8 O 2

1 2
C    2.817790   0.418196  -0.546093
C    5.385058  -0.365397   0.249179
C    5.946118  -3.015115   0.991067
O    8.273051  -3.691807  -0.261368
C    9.619556  -1.396848  -0.849715
C    7.710763   0.660592  -0.907050
O    6.843435   1.552278   1.498647
H    2.768827   2.398138  -1.143511
H    1.482188   0.191297   1.016427
H    2.161941  -0.739261  -2.129495
H    4.484793  -4.343838   0.380251
H    6.212493  -3.202897   3.034088
H   11.054822  -1.075065   0.607585
H   10.554971  -1.642040  -2.675436
H    7.665372   1.857846  -2.548315

