%chk=mol_3913.chk
# wB97XD/Def2SVP opt pop=full gfinput

C 5 H 9 N 1 O 1

1 2
C    1.842407  -0.051892   0.153030
C    4.692795   0.158170  -0.011093
C    5.974463   2.060709   1.779158
C    7.887263  -0.062229   2.329182
N    5.985462  -1.906696   1.370033
C   10.420044  -0.091123   0.807310
O   10.684172  -0.404364  -1.484115
H    1.159328  -1.667664  -0.945392
H    0.949361   1.649882  -0.613934
H    1.190395  -0.281928   2.104739
H    5.337475   0.342929  -1.975047
H    4.847960   2.612886   3.428436
H    6.727690   3.762936   0.881784
H    8.258046  -0.293720   4.355875
H    6.725403  -3.245605   0.189351
H   12.113919   0.172513   1.993888

