%chk=mol_5287.chk
# wB97XD/Def2SVP opt pop=full gfinput

C 4 H 10 N 2 O 1

1 2
C    4.247689  -1.387758  -2.146540
O    3.569353   0.995016  -1.109269
C    5.734468   2.406698  -0.214333
C    6.660189   4.526329  -1.886381
N    5.490958   4.949533  -4.375869
C    5.196804   5.118814   0.490119
N    6.465755   6.282621   2.668426
H    2.536447  -2.306165  -2.850198
H    5.095231  -2.584465  -0.689315
H    5.566812  -1.141111  -3.719265
H    7.128141   1.410511   0.914892
H    8.676923   4.921622  -1.846281
H    3.629786   4.441008  -4.287354
H    6.269960   3.768794  -5.681462
H    3.263217   5.766537   0.234175
H    8.261392   5.628625   2.887955
H    5.525068   5.852236   4.293155

