%chk=mol_3628.chk
# wB97XD/Def2SVP opt pop=full gfinput

C 5 H 10 O 2

1 2
O    4.082791  -0.659477  -2.636451
C    4.451325   0.071734  -0.076628
C    5.944474   2.514375  -0.035281
C    4.568148   4.928897  -0.961700
C    5.932757   6.370852   1.169230
C    6.157918   3.824239   2.585504
O    8.459926   3.396008   3.967329
H    3.179615  -2.260509  -2.613416
H    5.488332  -1.432734   0.892593
H    2.598430   0.287427   0.817703
H    7.798333   2.270411  -0.944164
H    2.510218   4.883487  -0.739695
H    5.022722   5.537011  -2.882815
H    7.747991   7.193016   0.601235
H    4.805479   7.822597   2.112752
H    4.526083   3.468214   3.813921
H    9.820680   3.820062   2.806886

