%chk=mol_3672.chk
# wB97XD/Def2SVP opt pop=full gfinput

C 5 H 8 O 2

1 2
O    2.820379  -0.058204   2.217858
C    4.287052   0.279434  -0.007389
C    6.247056   2.231256   0.482296
O    6.852204   3.790186  -1.643514
C    5.592777   5.006640   0.440533
C    6.945348   6.715028   2.151680
C    6.416641   7.085623   4.601068
H    1.538672  -1.312490   1.818124
H    3.022145   0.825092  -1.551786
H    5.180665  -1.522704  -0.489156
H    7.768532   1.569455   1.674411
H    3.625666   5.512123   0.146510
H    8.510004   7.758138   1.322411
H    4.878876   6.086997   5.520117
H    7.524568   8.391556   5.729990

