%chk=mol_5474.chk
# wB97XD/Def2SVP opt pop=full gfinput

C 5 H 9 N 1 O 1

1 2
N    2.925580  -0.526175  -0.975136
C    5.384718   0.065196   0.166126
C    6.872405  -2.116569   1.239679
C    7.739449  -0.763808  -1.102504
C    9.570613   1.363305  -0.955691
O    8.168228   3.554631  -0.162025
C    5.904071   2.710850   1.093962
H    2.306638   0.936983  -2.073918
H    1.584781  -0.784558   0.388093
H    6.126568  -4.012871   1.013177
H    7.905688  -1.832826   2.982706
H    7.641863  -1.684313  -2.919854
H   11.064290   0.997284   0.428968
H   10.442740   1.772355  -2.782338
H    6.222112   2.753766   3.136851
H    4.387491   4.034641   0.627181

