%chk=mol_3817.chk
# wB97XD/Def2SVP opt pop=full gfinput

C 5 H 9 N 1 O 1

1 2
C    3.485619   0.328245  -1.500613
N    3.461563  -0.048717   1.224391
C    1.017807   0.098870  -0.074455
C   -0.637310   2.333075   0.384484
C   -3.214897   1.339967  -0.406008
O   -3.172548  -1.318141   0.147890
C   -0.646494  -2.173639  -0.379211
H    4.092258   2.177437  -2.136146
H    4.145379  -1.244233  -2.632048
H    3.894197  -1.871471   1.691664
H   -0.652220   2.803711   2.401464
H   -0.110568   4.020884  -0.687501
H   -4.766702   2.248661   0.612744
H   -3.522525   1.569682  -2.441148
H   -0.599837  -2.891829  -2.320130
H   -0.184456  -3.707151   0.927345

