%chk=mol_5150.chk
# wB97XD/Def2SVP opt pop=full gfinput

C 4 H 7 N 1 O 2

1 2
C    1.875591  -0.291245  -0.754341
N    4.381538   0.013719   0.334633
C    5.822907  -2.278065   0.766341
C    5.625752   2.329692   0.496129
O    7.764564   2.640873   1.335016
C    4.238183   4.685066  -0.366191
O    3.223060   4.837113  -2.431076
H    0.716452   1.393219  -0.472961
H    0.922810  -1.881260   0.163612
H    2.071952  -0.673517  -2.776499
H    4.716397  -3.560943   1.950745
H    7.622116  -1.890463   1.704495
H    6.201420  -3.173512  -1.058492
H    4.270554   6.230730   1.031242

