%chk=mol_6727.chk
# wB97XD/Def2SVP opt pop=full gfinput

C 5 H 8 N 2

1 2
C    1.677604  -0.076515  -0.012434
C    4.483167  -0.006406  -0.011584
C    6.040831   2.086484  -0.031502
N    5.523292   4.567638  -0.060660
N    8.495736   1.271975  -0.027968
C    8.560157  -1.314361  -0.004687
C    6.101642  -2.162130   0.005253
H    0.857199   1.821299   0.015855
H    0.984491  -1.093792   1.650468
H    0.984850  -1.045567  -1.703985
H    6.853734   5.939164   0.093182
H    3.718187   5.207235   0.067898
H   10.020972   2.415542  -0.049473
H   10.338332  -2.321226  -0.001568
H    5.520419  -4.123326   0.019445

