%chk=mol_2519.chk
# wB97XD/Def2SVP opt pop=full gfinput

C 5 H 8 O 2

1 2
C    1.882961   0.131941   0.895409
C    4.453915  -0.050607  -0.361202
O    4.673954  -2.461576  -1.605266
C    4.746690  -1.989088  -4.287807
C    7.055784  -0.712294  -5.321318
C    4.769253   0.821577  -4.650446
O    4.709689   1.960213  -2.175906
H    1.648880   1.956622   1.837229
H    1.620743  -1.391575   2.267350
H    0.373278  -0.036056  -0.511341
H    5.977884   0.116124   1.028483
H    3.595695  -3.132675  -5.531474
H    8.711826  -0.571056  -4.124686
H    7.479611  -0.972132  -7.307477
H    3.633906   1.629586  -6.146334

