%chk=mol_2168.chk
# wB97XD/Def2SVP opt pop=full gfinput

C 6 H 10 O 1

1 2
C   -0.708043   0.318929  -0.584247
C    0.942331   1.104847  -2.752783
C    2.105155   0.522358  -0.227447
O    3.411636  -1.858149  -0.045580
C    6.090795  -1.444922   0.170718
C    7.709421  -3.608999  -0.710839
C    7.548322  -1.238054  -2.257334
H   -1.885569   1.740513   0.297689
H   -1.532643  -1.554451  -0.629430
H    0.884978   3.061885  -3.348689
H    1.226924  -0.236499  -4.273427
H    2.760077   2.093080   0.919711
H    6.772060  -0.401321   1.800777
H    6.766013  -5.283844  -1.417389
H    9.442357  -3.981785   0.310614
H    9.175584   0.004441  -2.289536
H    6.505533  -1.311527  -4.018408

