%chk=mol_3912.chk
# wB97XD/Def2SVP opt pop=full gfinput

C 5 H 9 N 1 O 1

1 2
C    1.748545  -0.143109  -0.142334
C    4.516389   0.299276  -0.395274
C    6.144652  -1.102485  -2.231237
C    5.150279  -3.072789  -3.977628
N    5.435325   1.478427  -2.655897
C    7.207926   3.397198  -2.547974
O    7.250596   5.253722  -3.927474
H    0.865136   1.455637   0.828721
H    1.401629  -1.843730   0.981788
H    0.802340  -0.366437  -1.967564
H    5.359471   0.937701   1.359356
H    8.106359  -1.427329  -1.738151
H    3.338579  -2.550507  -4.827343
H    4.902082  -4.858675  -2.964961
H    6.494120  -3.393192  -5.517452
H    8.637371   3.106237  -1.057642

