%chk=mol_6338.chk
# wB97XD/Def2SVP opt pop=full gfinput

C 4 H 7 N 1 O 2

1 2
O    2.359077   0.104332   1.164317
N    4.355668   0.135758  -0.575932
C    5.476219   2.304030  -0.573815
C    4.889383   4.578410   0.999325
C    6.234358   6.627742  -0.453931
C    8.423945   5.225660  -1.620667
O    7.498811   2.736380  -2.103171
H    1.683651  -1.597707   0.944485
H    5.692460   4.316380   2.887105
H    2.861574   4.938648   1.132910
H    4.989066   7.345063  -1.948345
H    6.819587   8.226752   0.713939
H    9.042150   6.095180  -3.392191
H   10.042969   5.092037  -0.337656

