%chk=mol_6772.chk
# wB97XD/Def2SVP opt pop=full gfinput

C 5 H 10 N 2

1 2
C    1.918658   0.169716   0.364245
C    4.769348   0.164066   0.047527
C    6.272285   1.762264   1.939275
N    7.227352  -0.527555   3.035751
C    6.170352  -2.131951   1.118378
C    9.768259  -0.694285   3.472485
N   11.205906   0.973984   4.512194
H    1.052294  -1.259295  -0.854270
H    1.134837   2.011028  -0.163367
H    1.361207  -0.228468   2.316748
H    5.285848   0.566748  -1.921852
H    5.166681   2.860989   3.294851
H    7.717358   2.960483   1.069547
H    7.562892  -2.951809  -0.175745
H    4.998628  -3.627783   1.929051
H   10.601987  -2.518041   2.900068
H   10.123395   2.496971   5.012480

