%chk=mol_2237.chk
# wB97XD/Def2SVP opt pop=full gfinput

C 6 H 8 O 1

1 2
C   -0.872543   2.723851  -0.894502
O   -2.410062   1.055336   0.534131
C   -2.514942  -1.430239  -0.467102
C   -0.422146  -2.991852   0.603597
C    1.995343  -2.282543   0.846786
C    3.095352   0.048075  -0.039269
C    1.901197   2.151189  -0.794138
H   -1.159687   4.609552  -0.088571
H   -1.527938   2.804580  -2.857871
H   -2.520932  -1.457300  -2.537033
H   -4.312789  -2.240478   0.158472
H   -0.961304  -4.855557   1.284938
H    3.320419  -3.602290   1.705081
H    5.156061   0.039590  -0.100231
H    3.084543   3.707076  -1.444658

