%chk=mol_1180.chk
# wB97XD/Def2SVP opt pop=full gfinput

C 6 H 11 N 1

1 2
C    1.891635  -0.101478   0.004687
C    4.762110   0.000000   0.000000
C    5.672996   2.572238   0.000000
C    6.423746   4.692322   0.000000
C    7.334632   7.264561   0.000000
C    9.315386   7.664162  -2.062466
N    5.216532   8.995172  -0.366097
H    1.242041  -2.065471   0.003572
H    1.106435   0.835977  -1.666001
H    1.112104   0.832122   1.680174
H    5.472401  -1.006865  -1.664244
H    5.478033  -1.009170   1.660408
H    8.200429   7.689806   1.832411
H    8.543187   7.298274  -3.948847
H   10.923978   6.389617  -1.791895
H   10.037280   9.603210  -2.031002
H    4.380952   8.607381  -2.056570
H    5.878333  10.795760  -0.492255

