%chk=mol_6999.chk
# wB97XD/Def2SVP opt pop=full gfinput

C 5 H 8 N 2

1 2
C    1.758012   0.133131  -0.290659
C    4.282384   0.248499  -0.353606
C    5.737341   2.614266  -0.072773
N    8.190413   2.662832  -0.038853
N    8.852214   5.109612   0.335559
C    6.785647   6.830245  -0.255869
C    4.505258   5.159973   0.209911
H    0.808878  -1.674448  -0.499077
H    0.570074   1.780708  -0.023470
H    5.411495  -1.446359  -0.602804
H   10.503721   5.570138  -0.548493
H    6.875296   7.402946  -2.243842
H    6.794964   8.517941   0.935112
H    3.014869   5.470965  -1.183101
H    3.773745   5.354464   2.134162

