%chk=mol_6340.chk
# wB97XD/Def2SVP opt pop=full gfinput

C 4 H 8 N 2 O 1

1 2
O    2.200284   0.143449   1.244800
N    4.387528  -0.000132  -0.235063
C    5.550900   2.159144  -0.275654
C    4.769744   4.542788   1.030846
C    6.301764   6.439128  -0.496242
N    8.673843   5.150826  -1.127637
C    7.967501   2.535030  -1.742233
H    1.519321  -1.563370   1.110554
H    5.378198   4.461984   3.003644
H    2.742446   4.894447   0.899699
H    5.292726   6.945594  -2.235055
H    6.651609   8.173160   0.573003
H    9.528642   5.987957  -2.635185
H    7.583358   2.305749  -3.763257
H    9.420606   1.201431  -1.127222

