%chk=mol_4442.chk
# wB97XD/Def2SVP opt pop=full gfinput

C 4 H 10 N 2 O 1

1 2
C    2.501147   0.562968   2.965963
C    3.510318   1.188846   0.356043
C    5.180646   3.517423   0.418537
C    3.908029   6.061769   0.896581
O    4.427288   7.766718  -1.103373
N    7.602576   3.212893   0.057485
N    9.041640   5.324549   0.136438
H    1.395260  -1.182685   2.908515
H    1.278192   2.070006   3.679807
H    4.045545   0.313506   4.320481
H    1.949838   1.531642  -0.960567
H    4.603240  -0.414001  -0.369857
H    4.605489   6.857476   2.673490
H    1.861021   5.833415   1.036477
H    6.250326   7.563251  -1.391897
H   10.700083   4.970169  -0.804929
H    9.638907   5.638093   1.953996

