%chk=mol_0875.chk
# wB97XD/Def2SVP opt pop=full gfinput

C 5 H 8 O 1

1 2
O    1.910948  -0.107412   1.239358
C    3.871387   0.081069   0.002853
C    5.762947   2.305863   0.056030
C    4.694250   5.014275  -0.288826
C    6.705202   5.918660   1.611615
C    6.736212   3.207394   2.670712
H    4.399282  -1.458472  -1.300245
H    7.338355   1.943527  -1.252151
H    2.748021   5.258069   0.377662
H    4.854366   5.804048  -2.191118
H    8.489802   6.487732   0.727771
H    6.102682   7.391966   2.926846
H    8.593643   2.495308   3.228408
H    5.405883   2.906191   4.229868

