%chk=mol_4405.chk
# wB97XD/Def2SVP opt pop=full gfinput

C 5 H 10 N 2

1 2
C   -3.117179   1.142188   0.542370
N   -3.067158  -1.557134  -0.627200
C   -0.413756  -1.512782   0.278640
C    2.012426  -2.042095  -1.078712
C    3.632110   0.163197   0.014929
N    1.802137   2.160222   0.851038
C   -0.443802   1.339268  -0.507694
H   -4.525006   2.384419  -0.321197
H   -3.343152   1.170780   2.603173
H   -3.243450  -1.561537  -2.549448
H   -0.280020  -1.973554   2.306770
H    2.817638  -3.881290  -0.586779
H    1.848832  -1.914519  -3.141254
H    4.741512  -0.470391   1.643646
H    4.928954   0.903289  -1.418372
H    1.629114   2.071971   2.770924
H   -0.410694   1.802912  -2.539471

