%chk=mol_3542.chk
# wB97XD/Def2SVP opt pop=full gfinput

C 5 H 8 O 2

1 2
O    1.695009   0.063703   0.231699
C    4.404290   0.065252   0.044957
C    5.788156   1.961592   1.774793
C    7.780437  -0.106751   2.321793
C    5.779595  -2.068324   1.482093
C   10.274724  -0.001247   0.798882
O   10.473580  -0.029499  -1.519793
H    1.145344  -1.285241  -0.890080
H    4.998042   0.218887  -1.935647
H    4.703321   2.539130   3.443440
H    6.492683   3.658793   0.827927
H    8.208933  -0.254244   4.348317
H    6.475638  -3.614479   0.299635
H    4.691415  -2.875653   3.050245
H   11.995112   0.093844   1.971060

