%chk=mol_7063.chk
# wB97XD/Def2SVP opt pop=full gfinput

C 6 H 9 N 1

1 2
C    1.891540  -0.101497   0.005235
C    4.762110   0.000000   0.000000
C    5.672996   2.572238   0.000000
C    6.423746   4.692322   0.000000
C    7.669491   7.090592   0.121075
C    7.550836   8.832032  -2.126925
N    6.166063   9.406471   0.186629
H    1.241890  -2.065357   0.002627
H    1.106019   0.837413  -1.664509
H    1.112463   0.830818   1.681592
H    5.472004  -1.006752  -1.664471
H    5.478316  -1.009378   1.660162
H    9.393923   7.125326   1.230495
H    6.412767   8.291155  -3.742527
H    9.188056   9.984652  -2.541039
H    7.069371  10.749253   1.230779

