%chk=mol_3754.chk
# wB97XD/Def2SVP opt pop=full gfinput

C 7 H 12

1 2
C    1.664943  -0.189823  -0.037757
C    4.531355  -0.158926   0.168564
C    5.586522   2.506457  -0.192865
C    8.420091   2.527112  -0.012718
C    9.706711   3.801581   1.760507
C   12.430354   3.808705   1.890954
C   13.720073   5.073499   3.658548
H    0.948397  -2.111334   0.229507
H    1.049044   0.472394  -1.898060
H    0.805118   1.021926   1.401345
H    5.325796  -1.439423  -1.254797
H    5.085026  -0.895503   2.025352
H    4.752038   3.782192   1.211692
H    5.043717   3.230298  -2.057231
H    9.428354   1.445074  -1.441351
H    8.688072   4.887021   3.179408
H   13.464960   2.730805   0.477628
H   12.785811   6.178422   5.112919
H   15.770653   5.025935   3.684324

