%chk=mol_1976.chk
# wB97XD/Def2SVP opt pop=full gfinput

C 7 H 12

1 2
C    3.896086  -0.792060   2.944722
C    4.807596   0.246326   0.824147
C    6.169219   2.735511   0.728376
C    8.835018   2.453885  -0.361429
C   10.174796   4.953426  -0.491480
C   12.062160   5.689795   1.508701
C   12.952901   5.027541  -1.107134
H    2.916547  -2.593857   2.892982
H    4.098306   0.124892   4.768100
H    4.543053  -0.740376  -0.960680
H    6.271604   3.596432   2.611545
H    5.067886   4.035756  -0.452627
H    8.725357   1.669063  -2.276893
H    9.921950   1.104734   0.779758
H    9.012520   6.425145  -1.319048
H   12.476993   4.368045   3.019027
H   12.143626   7.656282   2.078567
H   13.624472   6.546427  -2.306845
H   13.949051   3.256452  -1.364836

