%chk=mol_0945.chk
# wB97XD/Def2SVP opt pop=full gfinput

C 4 H 5 N 1 O 1

1 2
C    1.872681  -0.067747  -0.012416
C    4.642944   0.166220  -0.000151
C    6.321588   2.150433   0.002457
N    8.753117   1.252983   0.015741
C    8.459265  -1.212392   0.020466
O    6.016945  -2.023216   0.011263
H    0.971452   1.792745   0.004176
H    1.225846  -1.111140   1.651092
H    1.238319  -1.075613  -1.702398
H    5.914427   4.152522  -0.004441
H    9.900691  -2.658032   0.030481

