%chk=mol_3559.chk
# wB97XD/Def2SVP opt pop=full gfinput

C 5 H 6 O 2

1 2
O    2.210356  -0.090877   0.973058
C    4.384014   0.031048   0.248650
C    5.993077   2.355600   0.086644
C    8.134515   1.494074  -1.652358
C    8.576843  -1.314947  -1.137275
C    5.973027  -2.223943  -0.491763
O    5.252532  -4.400643  -0.426700
H    6.695753   2.822948   1.973441
H    4.946037   3.940476  -0.719664
H    7.555900   1.745672  -3.627688
H    9.853334   2.608427  -1.365195
H    9.321339  -2.286587  -2.798722
H    9.814028  -1.596157   0.494333

