%chk=mol_4162.chk
# wB97XD/Def2SVP opt pop=full gfinput

C 5 H 7 N 1 O 1

1 2
C    2.060746  -0.094694  -0.159285
C    4.836716   0.315414  -0.202257
N    5.927561   2.378296  -0.947811
O    8.610840   2.117476  -0.692944
C    9.079946  -0.278187   0.543391
C    8.643948  -2.651777  -0.943162
C    6.591251  -1.607533   0.727677
H    1.630569  -2.113526  -0.233324
H    1.184027   0.849791  -1.774396
H    1.287584   0.699066   1.585102
H   10.347157  -0.319231   2.146634
H    9.611033  -4.349677  -0.333008
H    8.440349  -2.482571  -2.974731
H    6.146221  -2.556308   2.481664

