%chk=mol_3332.chk
# wB97XD/Def2SVP opt pop=full gfinput

C 5 H 8 O 2

1 2
C    1.911836   0.262067  -0.275824
O    4.593565   0.074323  -0.319987
C    5.869281   2.318410  -0.198988
C    8.358410   2.526904  -0.467197
C    9.108234   5.207367  -0.208116
O    6.813011   6.597374   0.254093
C    4.727415   4.840250   0.273311
H    1.135688  -1.648616  -0.422713
H    1.221179   1.358997  -1.888328
H    1.255062   1.083134   1.505828
H    9.642706   0.984906  -0.815398
H   10.389997   5.497043   1.387380
H    9.984311   5.931340  -1.934702
H    3.401904   5.401026  -1.209992
H    3.805341   4.952613   2.119611

