%chk=mol_4748.chk
# wB97XD/Def2SVP opt pop=full gfinput

C 4 H 6 N 2 O 1

1 2
C    1.961914  -0.088817   0.698462
C    4.762110   0.000000   0.000000
N    5.174032  -1.175485  -2.463919
C    5.376894  -3.738464  -2.726327
O    5.281936  -5.261413  -0.994714
C    5.672996   2.572238   0.000000
N    6.399047   4.622572   0.000000
H    1.629435   0.765018   2.555590
H    1.269877  -2.038788   0.762202
H    0.806327   0.934904  -0.683892
H    5.812552  -1.100841   1.407109
H    5.182291  -0.078518  -4.033545
H    5.644669  -4.305155  -4.714054

