%chk=mol_6709.chk
# wB97XD/Def2SVP opt pop=full gfinput

C 3 H 3 N 1 O 2 S 1

1 2
O    1.668080  -0.079331   0.189369
S    4.369274   0.087797   0.586817
O    5.546705  -0.079350   3.049829
C    5.703855   2.420531  -1.223390
C    7.049472   1.294179  -3.047996
N    7.139140  -1.314985  -3.169468
C    5.785718  -2.243823  -1.334657
H    5.453126   4.406501  -0.882672
H    8.093338   2.350744  -4.463987
H    5.532116  -4.275222  -0.989328

