%chk=mol_5196.chk
# wB97XD/Def2SVP opt pop=full gfinput

C 5 H 9 N 1 O 1

1 2
C    7.206490  -2.038466  -1.934173
N    5.514580  -0.268984  -0.656718
C    3.186475  -1.243515   0.111815
O    2.437784  -3.417815  -0.183077
C    6.251743   2.248264  -0.257437
C    4.466405   4.031995   1.078070
C    8.502936   3.150873  -1.019167
H    8.960080  -2.212586  -0.850433
H    7.605600  -1.347715  -3.842890
H    6.381662  -3.925755  -2.106138
H    1.965466   0.139859   1.062555
H    4.049948   3.355417   2.988810
H    2.700078   4.229188   0.018217
H    5.263624   5.933097   1.275168
H    9.909422   2.023727  -1.990505
H    9.029282   5.107552  -0.687331

