%chk=mol_2155.chk
# wB97XD/Def2SVP opt pop=full gfinput

C 6 H 8 O 1

1 2
C    1.059683   2.350593   1.267628
C   -1.612371   1.461231   0.792665
C   -1.625769   0.022223  -1.625429
C    1.032716  -0.042084  -2.659355
C    2.346643   0.048434  -0.036094
O    1.102485  -2.056759   1.280252
C   -1.537670  -1.373283   0.835335
H    1.486024   4.146702   0.341681
H    1.461571   2.431605   3.293112
H   -3.187968   2.527528   1.486799
H   -3.214367  -0.082373  -2.877675
H    1.395752  -1.814912  -3.660229
H    1.473193   1.593323  -3.841813
H    4.402967  -0.060055   0.018746
H   -3.103233  -2.483610   1.517696

