%chk=mol_4121.chk
# wB97XD/Def2SVP opt pop=full gfinput

C 4 H 8 N 2 O 1

1 2
C    1.716041  -0.084981   0.266489
C    4.543941   0.024302  -0.115406
N    5.249149   0.197665  -2.821777
C    6.058065   2.024728   1.429937
N    7.804040  -0.017801   2.149167
C    6.168841  -1.892939   1.453691
O    6.151928  -4.093260   2.049729
H    1.228568  -0.168431   2.276666
H    0.905028  -1.759996  -0.640731
H    0.787222   1.585178  -0.529860
H    7.150780   0.041820  -3.112228
H    4.703264   1.831674  -3.677029
H    5.089807   2.821323   3.076625
H    6.985278   3.536452   0.368610
H    8.759939  -0.264770   3.785008

