%chk=mol_2629.chk
# wB97XD/Def2SVP opt pop=full gfinput

C 5 H 6 O 2

1 2
C    2.204800   0.385145   1.902897
C    3.733664   0.635893  -0.097472
C    5.855676   2.476335  -0.139915
C    5.146915   5.196274  -0.835618
C    6.357719   5.792256   1.730668
O    6.805886   7.649007   2.984199
O    6.828204   3.334630   2.289932
H    0.675955  -0.984925   1.884208
H    2.432040   1.500499   3.611739
H    3.453796  -0.532317  -1.760431
H    7.420142   1.741666  -1.288585
H    3.137663   5.662281  -0.924416
H    6.155216   5.994627  -2.448272

