%chk=mol_1525.chk
# wB97XD/Def2SVP opt pop=full gfinput

C 6 H 11 N 1

1 2
C    2.214211  -0.247403   0.119582
C    5.044302  -0.693662  -0.123720
N    6.411860   1.266910   1.259332
C    9.161298   0.969241   1.093868
C   10.392057   3.419781   2.004999
C   10.039359  -1.165111   2.654763
C   10.751842  -2.906607   3.928722
H    1.172915  -1.685730  -0.942010
H    1.680420   1.607099  -0.628769
H    1.606078  -0.350166   2.095442
H    5.557344  -0.643055  -2.129495
H    5.484817  -2.580043   0.606413
H    5.891278   1.249563   3.113929
H    9.724455   0.677996  -0.879705
H    9.914297   3.835596   3.978535
H    9.789802   5.028183   0.847731
H   12.456338   3.295758   1.881392
H   11.381216  -4.449152   5.058022

