%chk=mol_2300.chk
# wB97XD/Def2SVP opt pop=full gfinput

C 6 H 8 O 1

1 2
C    1.935061  -0.142013   0.003798
C    4.705210   0.337902   0.018878
C    5.818164   2.626058   0.075117
C    8.657856   2.320338   0.132073
C    9.108027  -0.490932  -0.056030
O    8.380482  -2.030756   2.037578
C    6.543763  -1.761829   0.055218
H    1.528807  -2.170067   0.028875
H    1.067998   0.655149  -1.696067
H    1.039236   0.699936   1.666927
H    4.857806   4.426268   0.102026
H    9.507155   3.296249  -1.481413
H    9.448328   3.085772   1.882696
H   10.533598  -1.122271  -1.363664
H    6.192689  -3.352393  -1.182496

