%chk=mol_5897.chk
# wB97XD/Def2SVP opt pop=full gfinput

C 4 H 6 N 2 O 1

1 2
N    1.981057   0.148589  -0.634872
N    4.431332   0.110284   0.102574
C    5.577754   2.273038   0.096395
C    8.291873   2.488939   0.905519
O    8.819881   5.151923   0.719173
C    6.627988   6.223964  -0.186573
C    4.630490   4.768157  -0.623024
H    1.334714  -1.668609  -0.781912
H    0.870124   0.958998   0.724067
H    9.532496   1.441181  -0.372711
H    8.538274   1.864782   2.859911
H    6.758738   8.241323  -0.466158
H    2.790483   5.235014  -1.332030

