%chk=mol_1927.chk
# wB97XD/Def2SVP opt pop=full gfinput

C 6 H 9 N 1

1 2
N    1.823945  -0.018689  -0.539876
C    4.548060  -0.007786  -0.149440
C    5.283334   2.375253   1.215661
C    6.462013   2.399990   3.465210
C    7.151990   0.038550   4.884337
C    6.479153  -2.349667   3.500472
C    5.299416  -2.365257   1.249506
H    1.346071  -1.569909  -1.567396
H    1.340269   1.498969  -1.613486
H    5.494076  -0.018160  -1.992489
H    4.840382   4.158796   0.303018
H    6.935805   4.192641   4.346805
H    9.191515   0.047546   5.245842
H    6.190289   0.047697   6.715482
H    6.965304  -4.125253   4.406218
H    4.869654  -4.165164   0.362960

