%chk=mol_2760.chk
# wB97XD/Def2SVP opt pop=full gfinput

C 6 H 10 O 1

1 2
C    2.821078   5.386513  -1.627394
C    5.584670   4.930655  -1.241153
C    6.539870   2.736550  -0.406253
C    9.202682   2.156650  -0.002381
C    9.861763  -0.147814   0.836903
C   11.212217   4.112214  -0.569337
O   11.236576   6.033593   1.311016
H    2.195654   6.961637  -0.442725
H    1.677453   3.729129  -1.153829
H    2.459970   5.874913  -3.604029
H    6.803203   6.520500  -1.697862
H    5.219518   1.209481   0.016308
H    8.476348  -1.605114   1.249600
H   11.828136  -0.644793   1.154623
H   10.908368   4.988480  -2.419435
H   13.101339   3.268697  -0.616939
H    9.625831   5.961311   2.192630

