%chk=mol_1386.chk
# wB97XD/Def2SVP opt pop=full gfinput

C 6 H 9 N 1

1 2
C    1.655268   0.285575  -0.083847
C    4.493145   0.053555  -0.149534
C    5.518643  -2.600622  -0.298388
N    4.747975  -3.858556  -2.626833
C    5.931888   2.150489   0.000000
C    8.588843   2.150489   0.000000
C   10.837919   2.150489   0.000000
H    1.033983   2.231124   0.258420
H    0.874263  -0.885771   1.434359
H    0.825735  -0.321367  -1.879484
H    4.844426  -3.692884   1.328855
H    7.583603  -2.641176  -0.203807
H    2.873026  -4.277981  -2.532724
H    5.661657  -5.548444  -2.749041
H    5.029752   3.992009   0.119431
H   12.850289   2.147523  -0.010242

