%chk=mol_0192.chk
# wB97XD/Def2SVP opt pop=full gfinput

C 4 H 8 O 1

1 2
C   -1.503447  -1.889386  -0.376301
C   -2.246941   0.727091   0.467424
C    0.008636   2.274607  -0.365568
O    2.174206   0.652504  -0.184059
C    1.311753  -1.898646   0.129257
H   -2.506476  -3.400260   0.612649
H   -1.856732  -2.097350  -2.407776
H   -2.414598   0.776281   2.531647
H   -4.025816   1.390593  -0.345083
H   -0.174630   2.862123  -2.341786
H    0.295742   3.956501   0.799940
H    2.344602  -3.145090  -1.154679
H    1.721465  -2.468436   2.075864

