%chk=mol_3069.chk
# wB97XD/Def2SVP opt pop=full gfinput

C 6 H 12 O 1

1 2
C    2.792184  -0.512607   0.641997
C    4.788415   0.794687  -0.993353
C    5.376706  -0.812393  -3.346951
O    7.475945   0.179165  -4.711314
C    4.007844   3.499319  -1.642682
C    1.639961   3.898014  -3.168164
C    5.398343   5.480886  -0.869709
H    2.327878   0.627068   2.306827
H    3.490003  -2.343752   1.310431
H    1.043488  -0.860128  -0.409579
H    6.535183   0.883182   0.127179
H    3.759912  -0.943087  -4.631057
H    5.877388  -2.740783  -2.785626
H    7.124551   1.957378  -5.027635
H   -0.010053   3.146980  -2.174867
H    1.787379   2.970234  -5.009531
H    1.281159   5.906150  -3.523206
H    7.110624   5.232614   0.235819
H    4.864382   7.413717  -1.308975

