%chk=mol_6252.chk
# wB97XD/Def2SVP opt pop=full gfinput

C 4 H 6 N 2 O 1

1 2
O    5.127677  -1.277757  -0.912171
C    4.292570   0.323861   0.547850
C    5.513975   2.881379   1.030524
N    8.183554   2.801821   0.292719
C    9.387725   5.301438   0.308422
C    8.450950   7.063929  -1.646462
N    7.672382   8.440688  -3.166331
H    2.466149   0.026947   1.512310
H    5.349437   3.290070   3.050717
H    4.423962   4.273673  -0.041498
H    8.325075   1.993491  -1.460532
H   11.419501   5.020322   0.018973
H    9.189852   6.157238   2.185601

