%chk=mol_2314.chk
# wB97XD/Def2SVP opt pop=full gfinput

C 6 H 8 O 1

1 2
C    1.859358   0.050078  -0.273972
C    4.685425  -0.077233   0.188179
C    5.909230  -2.320376  -1.036628
C    7.698858  -1.704023  -2.711190
C    8.065559   1.079147  -2.994668
C    6.082896   2.032835  -1.169948
O    5.658502   4.289130  -0.823429
H    1.062083   1.765741   0.565576
H    0.897695  -1.579698   0.563403
H    1.412192   0.091009  -2.295923
H    5.144382  -0.021902   2.203931
H    5.393108  -4.246573  -0.574571
H    8.793671  -3.069426  -3.770646
H    9.948029   1.661617  -2.384003
H    7.643640   1.708142  -4.913420

