%chk=mol_4325.chk
# wB97XD/Def2SVP opt pop=full gfinput

C 5 H 11 N 1 O 1

1 2
C    1.798566  -0.194547  -0.378493
C    4.650049   0.061586  -0.060301
C    6.095727  -1.567773  -1.945473
C    5.464256   2.822948  -0.242357
C    5.076617   4.236124  -2.696809
N    6.480532   3.840075   1.752230
O    7.147095   6.361763   1.319615
H    0.797370   1.046606   0.941386
H    1.195819  -2.140002  -0.011225
H    1.186200   0.305418  -2.290556
H    5.133403  -0.601443   1.845620
H    5.600279  -1.110044  -3.901736
H    5.683181  -3.573189  -1.642985
H    8.137501  -1.295105  -1.739096
H    4.113726   3.069142  -4.098816
H    6.913355   4.796975  -3.461487
H    3.928552   5.920493  -2.354920
H    7.864889   6.862654   2.941793

