%chk=mol_4028.chk
# wB97XD/Def2SVP opt pop=full gfinput

C 6 H 9 N 1

1 2
C    1.101767   2.326310   1.257877
C   -1.561046   1.443108   0.798277
C   -1.586255   0.003420  -1.625127
C    1.064105  -0.022337  -2.660980
C    2.349308   0.018066  -0.033505
C    0.952082  -2.169122   1.282595
N   -1.706234  -1.336017   0.811222
H    1.518263   4.109474   0.298955
H    1.546835   2.460102   3.272231
H   -3.136908   2.548900   1.444715
H   -3.179540  -0.027798  -2.882229
H    1.471832  -1.743027  -3.732889
H    1.485249   1.656893  -3.789506
H    4.407692  -0.046128  -0.015874
H    1.349340  -2.270600   3.311159
H    1.321693  -4.005407   0.402568

