%chk=mol_4351.chk
# wB97XD/Def2SVP opt pop=full gfinput

C 5 H 7 N 1 O 1

1 2
C    2.564510  -1.112179  -0.352887
C    5.016826  -0.559264  -0.082165
C    5.986936   1.988200  -0.213501
C    8.443239   2.535653   0.054405
N    9.324192   4.964084  -0.076912
C   11.800640   5.661789   0.176746
O   12.516885   7.858143   0.047300
H    1.917467  -3.056141  -0.240335
H    1.144872   0.329644  -0.690336
H    6.351010  -2.087940   0.252411
H    4.625256   3.491779  -0.546225
H    9.840654   1.065220   0.387999
H    8.107813   6.412162  -0.383936
H   13.104684   4.071736   0.509187

