%chk=mol_6885.chk
# wB97XD/Def2SVP opt pop=full gfinput

C 5 H 8 N 2

1 2
C    2.028545  -0.029423   0.183455
C    4.850852  -0.016006   0.090877
N    6.201703  -2.070460  -0.097245
N    8.673559  -1.331539  -0.007767
C    8.988388   1.410699  -0.274332
C    6.364616   2.336363   0.154088
C    5.528167   4.683951   0.563516
H    1.318537  -1.955867  -0.048471
H    1.271842   1.146667  -1.335961
H    1.389232   0.703280   2.007078
H    9.777500  -2.335172  -1.227906
H    9.619310   1.877726  -2.188227
H   10.331605   2.135334   1.118680
H    6.831001   6.267711   0.600347
H    3.546865   5.089354   0.888077

