%chk=mol_4686.chk
# wB97XD/Def2SVP opt pop=full gfinput

C 5 H 9 N 1 O 1

1 2
C    4.671838  -0.628447   3.257113
C    4.171873   0.594905   0.703073
N    5.708881   2.860894   0.314072
C    4.954257   5.233256   1.130869
C    2.808700   5.789214   2.344073
C    8.059644   2.537108  -0.831668
O    8.968697   0.534604  -1.561046
H    3.523394  -2.334927   3.471521
H    4.211992   0.656944   4.810940
H    6.662116  -1.161256   3.448675
H    2.165343   1.049667   0.479612
H    4.607719  -0.780041  -0.785257
H    6.264480   6.771229   0.735349
H    1.392464   4.397978   2.841279
H    2.417791   7.726882   2.897385
H    9.111088   4.325016  -1.041655

