%chk=mol_2435.chk
# wB97XD/Def2SVP opt pop=full gfinput

C 6 H 12 O 1

1 2
C    2.016678   0.163556  -0.225388
C    4.830745   0.093031  -0.167732
C    6.408023  -1.234350  -2.139000
O    5.179777  -2.278348  -4.317571
C    6.496009   1.627602  -1.941826
C    5.354804   3.210947  -4.020260
C    8.854312   2.785589  -0.828229
H    1.326947   1.602847   1.090750
H    1.258274  -1.662751   0.381744
H    1.225431   0.589273  -2.083196
H    5.466467  -0.122681   1.774831
H    8.047493  -2.270279  -1.460834
H    3.372141  -1.975803  -4.336052
H    3.722496   2.328898  -4.929464
H    6.760911   3.561794  -5.498650
H    4.743421   5.038955  -3.266826
H    9.648526   1.625580   0.690600
H    8.434981   4.653999  -0.045164
H   10.306000   2.999166  -2.286644

