%chk=mol_4913.chk
# wB97XD/Def2SVP opt pop=full gfinput

C 4 H 7 N 1 O 2

1 2
C    5.199903   5.863839  -2.129268
C    4.276583   3.736612  -1.127259
O    5.535442   1.740343  -0.084376
C    8.240774   1.796619  -0.077989
O    9.240988   3.557882   1.716363
N   11.896582   3.492063   1.602847
C   12.780332   4.973306   3.324387
H    3.920879   7.278261  -2.886991
H    7.202465   6.285456  -2.214268
H    2.259338   3.374276  -1.041806
H    8.970019   2.184731  -1.980754
H    8.869165  -0.100099   0.463607
H   14.837071   5.187525   3.551948
H   11.564538   6.063886   4.619379

