%chk=mol_5624.chk
# wB97XD/Def2SVP opt pop=full gfinput

C 5 H 3 N 1 O 1

1 2
N    1.695802   0.177389  -0.012397
C    3.886411   0.085869  -0.007238
C    6.575000  -0.033543   0.000151
C    8.172763   2.015544   0.004913
O   10.620601   1.233027   0.013852
C   10.583865  -1.335186   0.014645
C    8.134439  -2.210035   0.005291
H    7.895011   4.040896   0.003383
H   12.415198  -2.243558   0.022299
H    7.555220  -4.169832   0.003534

