%chk=mol_2745.chk
# wB97XD/Def2SVP opt pop=full gfinput

C 6 H 8 O 1

1 2
C    3.945559  -2.231502   1.168153
C    5.955982  -0.703980   1.377573
C    5.964410   2.059008   0.701447
C    6.595843   3.687555   2.946744
C    5.070097   5.465976   3.910750
C    7.930387   2.508801  -1.362039
O   10.207072   2.106119  -1.144777
H    4.082923  -4.213409   1.686354
H    2.128720  -1.555301   0.496903
H    7.729754  -1.494811   2.063675
H    4.129807   2.610827  -0.093844
H    8.440046   3.391114   3.815848
H    3.213593   5.848910   3.127459
H    5.658218   6.576077   5.533723
H    7.162931   3.251822  -3.154161

