%chk=mol_3852.chk
# wB97XD/Def2SVP opt pop=full gfinput

C 4 H 6 N 2 O 1

1 2
C    3.476359  -0.320290   0.316718
N    1.868372  -2.458401   1.088444
C   -0.081013  -1.721522  -0.757213
C   -2.477185  -0.572341   0.411015
N   -2.496574   1.871169   0.535303
O   -0.140709   2.824234  -0.435317
C    1.350738   0.706795  -1.360792
H    5.168080  -0.888511  -0.734612
H    4.049929   0.910243   1.875232
H    2.661755  -4.186008   0.787676
H   -0.380496  -3.023335  -2.329522
H   -4.051251  -1.779366   1.026329
H    1.855390   0.971508  -3.348349

