%chk=mol_5119.chk
# wB97XD/Def2SVP opt pop=full gfinput

C 4 H 8 N 2 O 1

1 2
C    2.030378  -0.301638  -0.997586
N    4.444220   0.239598   0.227051
C    5.709997  -1.995059   1.254759
C    5.843997   2.356885  -0.470107
N    4.869219   4.441801  -1.306387
C    8.744953   2.435441  -0.265488
O   10.057557   0.552065  -0.479631
H    0.690903   1.249260  -0.726184
H    1.134365  -1.993302  -0.210723
H    2.306751  -0.606640  -3.024601
H    4.347863  -3.268981   2.153796
H    7.066272  -1.471133   2.726610
H    6.675004  -3.043801  -0.244209
H    2.948030   4.297748  -1.323111
H    9.510916   4.346257   0.050286

