%chk=mol_5295.chk
# wB97XD/Def2SVP opt pop=full gfinput

C 4 H 6 N 2 O 1

1 2
C    5.390538  -2.238702  -0.614180
O    4.305930   0.070449   0.222610
C    6.013052   2.104323   0.107960
C    4.953067   4.352210   1.455751
N    4.760768   6.347798   0.054178
N    5.604361   5.710639  -2.429848
C    6.272039   3.358875  -2.419624
H    3.957464  -3.719718  -0.467783
H    6.997127  -2.758811   0.579541
H    5.987522  -2.095045  -2.588093
H    7.858388   1.622972   0.906502
H    4.448623   4.272614   3.466136
H    7.014853   2.343657  -4.067730

