%chk=mol_1719.chk
# wB97XD/Def2SVP opt pop=full gfinput

C 6 H 13 N 1

1 2
C    2.602417  -0.866742  -0.031143
N    5.345166  -0.625027  -0.326677
C    6.074147  -1.385453  -2.885782
C    6.120596   1.980225   0.242565
C    8.945585   2.212756   0.338903
C   10.402943   3.326523  -1.846262
C   10.145599   4.789133   0.572719
H    2.031096  -0.397296   1.902784
H    2.002505  -2.820454  -0.363300
H    1.565090   0.364150  -1.335167
H    5.404862  -3.303525  -3.290240
H    8.131567  -1.450648  -3.089079
H    5.306974  -0.115065  -4.329684
H    5.413177   2.504379   2.120197
H    5.301362   3.322214  -1.110857
H    9.808529   0.698953   1.420016
H    9.365313   3.990062  -3.483087
H   12.226547   2.505078  -2.288874
H   11.801529   4.965501   1.766289
H    8.934757   6.441056   0.572681

