%chk=mol_1169.chk
# wB97XD/Def2SVP opt pop=full gfinput

C 6 H 13 N 1

1 2
C    4.692322  -0.617430   2.637302
C    4.793234   0.470447  -0.023735
C    5.265533   3.296155  -0.018935
C    2.946537   4.897622   0.353681
C    7.630468   4.186083  -0.358859
C    8.522117   6.865054  -0.428458
N   10.351050   7.254545   1.589486
H    4.356310  -2.656785   2.559332
H    3.172775   0.235214   3.750974
H    6.477547  -0.305096   3.636438
H    3.021143   0.061114  -1.017353
H    6.277632  -0.509584  -1.089805
H    1.571818   4.512175  -1.145287
H    3.328337   6.924599   0.322009
H    2.060671   4.470090   2.173506
H    9.149468   2.817525  -0.619906
H    6.994443   8.239093  -0.240052
H    9.437916   7.216807  -2.250985
H    9.460800   6.993612   3.277636
H   10.922164   9.091302   1.568492

