%chk=mol_3698.chk
# wB97XD/Def2SVP opt pop=full gfinput

C 7 H 8

1 2
C    1.889991  -0.103406   0.007975
C    4.762110   0.000000   0.000000
C    5.672996   2.572238   0.000000
C    6.423746   4.692322   0.000000
C    7.286689   7.129181   0.000000
C    8.037440   9.249265   0.000000
C    8.948326  11.821503   0.000000
H    1.243005  -2.066189   0.005197
H    1.106189   0.834352  -1.662997
H    1.112709   0.830572   1.682196
H    5.471513  -1.006676  -1.664679
H    5.478883  -1.009359   1.659690
H    7.448507  13.142630  -0.530824
H   10.504458  12.060459  -1.340893
H    9.637774  12.367370   1.871717

