%chk=mol_3284.chk
# wB97XD/Def2SVP opt pop=full gfinput

C 5 H 8 O 2

1 2
C    2.116966  -2.038164   0.472243
C    4.537894  -0.585626  -0.044654
O    5.856393  -1.832751  -2.036917
C    3.975417   2.162187  -0.768930
O    4.285691   2.912143  -2.951507
C    3.067574   3.882499   1.273127
C    2.521821   6.302237   0.784199
H    1.070719  -1.245046   2.070478
H    2.533858  -4.024644   0.878893
H    0.873809  -2.011878  -1.184348
H    5.774871  -0.601216   1.612995
H    5.576488  -0.812393  -3.556786
H    2.872232   3.104934   3.157411
H    2.721867   7.093144  -1.100577
H    1.863950   7.555276   2.268635

