%chk=mol_1321.chk
# wB97XD/Def2SVP opt pop=full gfinput

C 7 H 12

1 2
C    1.852347   0.198837   0.031502
C    4.659271   0.017763  -0.047640
C    6.098732  -2.062409  -0.206112
C    5.241723  -4.738829  -0.336050
C    8.856201  -1.424173  -0.156942
C    8.864857   1.425515  -0.609607
C    6.237741   2.361836   0.129030
H    0.947887  -1.656950  -0.085510
H    1.163656   1.337699  -1.551843
H    1.241059   1.091071   1.794522
H    6.855020  -6.029436  -0.445106
H    4.074873  -5.052277  -2.014656
H    4.151199  -5.240891   1.348093
H    9.672601  -1.898060   1.684445
H    9.916244  -2.404072  -1.637486
H    9.202399   1.811057  -2.621069
H   10.362275   2.380942   0.451909
H    5.594761   3.841152  -1.164808
H    6.216651   3.100512   2.061956

