%chk=mol_6613.chk
# wB97XD/Def2SVP opt pop=full gfinput

C 6 H 13 N 1

1 2
C    1.776702   1.593776  -0.789679
C    4.297540   0.267132  -0.823108
C    5.558516  -0.016214   1.743253
C    6.772873   2.449331   2.657314
N    7.934185   2.118345   5.139791
C    4.613464  -1.873834  -2.698302
C    5.963352   0.584209  -3.128857
H    0.950022   1.725811  -2.683827
H    1.963104   3.517744  -0.055671
H    0.439966   0.564310   0.409220
H    7.011527  -1.495756   1.662940
H    4.144661  -0.663955   3.116347
H    5.364479   3.960469   2.766351
H    8.225657   3.061753   1.316610
H    6.578175   1.663129   6.429585
H    8.685446   3.795288   5.716346
H    3.052323  -2.337950  -3.942422
H    5.740497  -3.501360  -2.166344
H    7.998719   0.603673  -2.884932
H    5.310338   1.783051  -4.657646

