%chk=mol_5525.chk
# wB97XD/Def2SVP opt pop=full gfinput

C 5 H 7 N 1 O 1

1 2
N    1.787133  -0.244115  -0.225218
C    4.514556  -0.023962  -0.001134
C    5.784357  -2.325327  -1.034474
C    7.383784  -1.606948  -2.846494
O    7.403720   0.968163  -3.285799
C    5.643176   2.036973  -1.641851
C    5.119022   4.507507  -1.660918
H    0.985454   1.397925   0.371539
H    1.170591  -1.609990   0.978028
H    5.064768   0.255019   1.975652
H    5.469529  -4.237881  -0.412489
H    8.622121  -2.713590  -4.014534
H    6.071085   5.760188  -2.975128
H    3.728657   5.315932  -0.394159

