%chk=mol_4184.chk
# wB97XD/Def2SVP opt pop=full gfinput

C 4 H 7 N 1 O 2

1 2
C    1.981586  -0.082279  -0.265677
C    4.663088   0.635439   0.166712
O    6.449768  -0.831083  -1.226319
C    6.227347   1.799983  -1.918866
C    8.516448   3.320532  -1.411833
N    8.369559   4.989161   0.548191
O   10.396026   3.171622  -2.747907
H    0.735651   1.481092   0.263258
H    1.486062  -1.722183   0.892990
H    1.612409  -0.557734  -2.245505
H    5.087143   1.023854   2.126547
H    5.336851   2.187793  -3.720776
H    6.819039   5.203966   1.635785
H    9.909856   6.063054   0.903119

