%chk=mol_5557.chk
# wB97XD/Def2SVP opt pop=full gfinput

C 4 H 6 N 2 O 1

1 2
N    1.863686   0.053668  -0.132149
C    4.393972  -0.035924  -0.061794
C    5.949916   2.039241  -0.042046
N    8.403990   1.183611   0.032560
C    8.424305  -1.410208   0.062399
C    5.955604  -2.190608   0.001266
O    5.276814  -4.628280  -0.016044
H    0.939799   1.723525   0.073964
H    0.759519  -1.465124   0.236254
H    5.553017   4.041425  -0.075684
H    9.959915   2.295280   0.054537
H   10.175930  -2.459516   0.109604
H    3.453664  -4.718930  -0.190787

