%chk=mol_2284.chk
# wB97XD/Def2SVP opt pop=full gfinput

C 6 H 8 O 1

1 2
C    1.614922   0.004838  -0.009997
C    4.417537   0.048982  -0.032295
C    5.946288   2.081061   0.008315
C    8.646083   1.422510  -0.082864
O    9.698132  -0.075343  -2.088488
C    8.703909  -1.439782   0.016611
C    5.996120  -2.340180  -0.132564
H    0.908996  -1.938500   0.019823
H    0.858540   0.927137  -1.698127
H    0.882483   0.966973   1.666436
H    5.302685   4.021167   0.056333
H    9.915148   2.472688   1.128885
H    9.942738  -2.418207   1.300623
H    5.560557  -3.555992   1.483303
H    5.661336  -3.383517  -1.886022

