%chk=mol_7118.chk
# wB97XD/Def2SVP opt pop=full gfinput

C 6 H 13 N 1

1 2
C    1.750737  -0.249501   0.312693
C    4.593131  -0.104596   0.101176
C    5.803538  -2.688854   0.084546
C    5.905527   2.091549  -0.062021
C    4.664827   4.663504  -0.224783
C    8.759788   2.246469  -0.047961
N    9.715120   2.707203  -2.587602
H    0.879554   1.513255   0.944598
H    1.212203  -1.681592   1.710391
H    0.925059  -0.781269  -1.508890
H    4.745234  -3.961697  -1.160821
H    5.795280  -3.492441   1.991110
H    7.744684  -2.687134  -0.619036
H    2.677969   4.583058  -0.778397
H    5.599674   5.838573  -1.650298
H    4.800547   5.632159   1.598841
H    9.638661   0.545961   0.731721
H    9.357659   3.792850   1.195327
H    9.156007   1.252265  -3.718962
H   11.637784   2.652117  -2.552075

