%chk=mol_5564.chk
# wB97XD/Def2SVP opt pop=full gfinput

C 5 H 9 N 1 O 1

1 2
N    1.756122   0.168337   0.281890
C    4.504521   0.164482  -0.118939
C    5.808414   1.980244   1.728362
O    7.526250  -0.011830   2.536901
C    5.801081  -1.907093   1.493791
C    6.941115  -4.006824   0.009638
C    9.415239  -4.113613  -0.498359
H    0.855706  -1.297127  -0.587384
H    0.889078   1.766648  -0.356100
H    5.116547   0.332573  -2.086522
H    4.699730   2.685376   3.326844
H    6.824802   3.545731   0.841986
H    4.641149  -2.679046   3.034276
H    5.681537  -5.487198  -0.645436
H   10.718924  -2.666517   0.152898
H   10.202725  -5.673865  -1.572422

