%chk=mol_1424.chk
# wB97XD/Def2SVP opt pop=full gfinput

C 5 H 12 N 2

1 2
C    1.573065   0.209363   0.048188
C    4.410866  -0.238389   0.071866
C    5.871001   2.252913   0.035773
N    8.592717   1.795202   0.012907
C    9.794734   1.393560   2.459781
C    9.930889   1.288510  -2.147598
N    9.174640   1.262923  -4.452591
H    0.562326  -1.594097   0.096527
H    0.998531   1.221708  -1.661617
H    0.983754   1.320295   1.690379
H    4.930503  -1.398492  -1.564259
H    4.914365  -1.329158   1.760620
H    5.358394   3.391794   1.690700
H    5.319674   3.391057  -1.605058
H    8.585082   1.987463   4.029727
H   11.552595   2.477998   2.582462
H   10.236835  -0.611610   2.716859
H   11.937438   0.848563  -1.773092
H    7.300201   1.694612  -4.544300

