%chk=mol_4035.chk
# wB97XD/Def2SVP opt pop=full gfinput

C 4 H 8 N 2 O 1

1 2
C    1.873248   0.070279  -0.157811
C    4.738923   0.029347   0.092256
C    5.703061  -2.506665   1.169911
N    6.866282  -1.743499   3.545372
O    5.892714  -3.021502   5.638754
C    6.544499   0.816022   3.742848
N    5.503506   2.057345   1.901121
H    1.224580  -1.400117  -1.460683
H    1.229342   1.901083  -0.873186
H    0.955691  -0.237444   1.673315
H    5.605948   0.398468  -1.751776
H    7.148248  -3.318907  -0.072339
H    4.197365  -3.904609   1.424627
H    7.286633  -4.122305   6.136621
H    7.237236   1.688074   5.501673

