%chk=mol_1096.chk
# wB97XD/Def2SVP opt pop=full gfinput

C 4 H 7 N 1 O 1

1 2
N    1.902954   0.027118   0.069599
C    4.667624   0.000000   0.000000
C    5.635617  -1.452803  -2.341352
O    8.286336  -1.953202  -2.176908
C    5.578509   2.572238   0.000000
C    6.329260   4.692322   0.000000
H    1.337340   0.975911   1.647596
H    1.262469  -1.776664   0.271950
H    5.364177  -0.957430   1.701245
H    5.272676  -0.423544  -4.102728
H    4.697500  -3.292526  -2.478603
H    9.135371  -0.320309  -2.207314
H    6.981328   6.597866  -0.001134

