%chk=mol_0957.chk
# wB97XD/Def2SVP opt pop=full gfinput

C 4 H 7 N 1 O 1

1 2
C    1.885115   0.057145   0.231151
C    4.722066  -0.054500  -0.121131
N    6.094613   1.850193   1.407922
C    7.890400  -0.011206   2.459195
C    6.137471  -2.069930   1.413099
O    5.954792  -4.336865   1.686543
H    0.979502  -1.553393  -0.701523
H    1.107776   1.782352  -0.607755
H    1.342764   0.012888   2.229064
H    5.281293  -0.051042  -2.115681
H    5.009059   2.694145   2.763479
H    9.758413   0.015269   1.577770
H    8.061590   0.014702   4.515179

