%chk=mol_0815.chk
# wB97XD/Def2SVP opt pop=full gfinput

C 6 H 8

1 2
C    1.782976  -0.072169   0.018614
C    4.603089  -0.005461   0.034128
C    5.931888   2.150489   0.000000
C    8.588843   2.150489   0.000000
C   10.837919   2.150489   0.000000
C   13.566684   2.150489   0.000000
H    1.125559  -2.030983  -0.086474
H    1.024647   0.935074  -1.621215
H    1.017920   0.760407   1.750170
H    5.578698  -1.814421   0.068710
H    4.971945   3.964475  -0.033467
H   14.311406   4.079597  -0.022072
H   14.311293   1.166755  -1.659633
H   14.311293   1.205003   1.681724

