%chk=mol_0831.chk
# wB97XD/Def2SVP opt pop=full gfinput

C 4 H 6 O 2

1 2
C    6.253727  -2.173979  -0.358179
O    4.826890   0.066499   0.078594
C    6.128401   2.300515   0.149024
C    8.609989   2.697584  -0.137723
C    9.601301   5.297148   0.012548
O   11.860507   5.734979  -0.239617
H    4.943391  -3.772725  -0.359974
H    7.632887  -2.477148   1.153961
H    7.185816  -2.107196  -2.204101
H    4.783426   3.812182   0.492500
H    9.988393   1.229966  -0.480331
H    8.209802   6.809080   0.360635

