%chk=mol_3215.chk
# wB97XD/Def2SVP opt pop=full gfinput

C 6 H 12 O 1

1 2
C    1.584687   2.809040  -0.601745
C    4.171703   3.058314   0.603711
O    6.031250   2.453035  -1.251471
C    8.552485   2.522085  -0.281342
C   10.213384   1.025687  -2.100865
C    9.430395   5.222863  -0.152652
C   10.268942   6.362141   1.946739
H    0.092918   3.267979   0.753377
H    1.286904   0.881973  -1.295086
H    1.415764   4.069903  -2.234185
H    4.323032   1.755008   2.204611
H    4.435509   4.996492   1.277417
H    8.620553   1.601940   1.575805
H   10.111188   1.794559  -4.022055
H    9.558783  -0.935150  -2.218066
H   12.192135   1.019639  -1.495813
H    9.338668   6.294281  -1.905298
H   10.377809   5.375269   3.742395
H   10.859311   8.327286   1.906261

