%chk=mol_0784.chk
# wB97XD/Def2SVP opt pop=full gfinput

C 5 H 8 O 1

1 2
C    1.748979   0.094335   0.388358
C    4.600765   0.029102  -0.013039
O    5.074557  -1.222691  -2.363386
C    5.720938   2.707637   0.000000
C    8.449571   2.682920  -0.010582
C   10.698533   2.662549  -0.019294
H    1.264472   0.954066   2.204819
H    0.968012  -1.822886   0.336787
H    0.812204   1.157892  -1.121288
H    5.463690  -1.123688   1.476424
H    4.601937  -0.084206  -3.725727
H    5.056472   3.725274   1.678266
H    5.043641   3.754168  -1.655967
H   12.712226   2.630461  -0.032069

