%chk=mol_3483.chk
# wB97XD/Def2SVP opt pop=full gfinput

C 5 H 10 O 2

1 2
C    4.802286   1.688659  -4.326244
O    4.473851   3.753091  -2.640458
C    5.254403   3.133468  -0.144205
O    7.910734   2.785721   0.069504
C    9.245844   5.092699  -0.307534
C   11.974987   4.572873   0.212575
C   13.859838   4.978502  -1.426157
H    4.086892   2.248642  -6.181087
H    3.731132   0.041234  -3.683379
H    6.805187   1.208518  -4.516672
H    4.316191   1.395808   0.476608
H    4.637029   4.643360   1.130982
H    8.569738   6.529571   1.022058
H    8.959682   5.770902  -2.241915
H   12.411967   3.806249   2.067625
H   13.514679   5.727760  -3.305226
H   15.800699   4.547399  -0.918123

