%chk=mol_3476.chk
# wB97XD/Def2SVP opt pop=full gfinput

C 7 H 10

1 2
C    4.630774  -1.157117   2.660357
C    4.840477  -0.087211  -0.001757
C    5.696958   2.639929   0.000000
C    4.114463   4.634534  -0.064043
C    1.288812   4.594265  -0.044673
C    8.309428   3.124133   0.000000
C   10.520843   3.533996   0.000000
H    4.018824  -3.131994   2.587300
H    3.249951  -0.103311   3.785518
H    6.450202  -1.091544   3.644507
H    3.025924  -0.298388  -0.975779
H    6.179404  -1.235352  -1.093792
H    4.922718   6.530326  -0.105655
H    0.494768   2.716122   0.271062
H    0.565198   5.315913  -1.841538
H    0.593223   5.820583   1.468676
H   12.499140   3.902833   0.000189

