%chk=mol_6645.chk
# wB97XD/Def2SVP opt pop=full gfinput

C 4 H 6 N 2 S 1

1 2
N    1.771958   0.213256  -0.211971
C    4.311713   0.040440  -0.115254
C    6.020214   2.005642  -0.037568
C    8.558173   1.142132   0.055974
N   10.576136   2.687191   0.143978
C    8.723580  -1.445622   0.049114
S    5.801308  -2.829166  -0.073643
H    0.885922   1.859113   0.212235
H    0.724275  -1.358713   0.124627
H    5.460685   3.970730  -0.052497
H   10.418419   4.590372  -0.029631
H   12.377196   2.036482   0.029688
H   10.399277  -2.609561   0.109453

