%chk=mol_4236.chk
# wB97XD/Def2SVP opt pop=full gfinput

C 5 H 9 N 1 O 1

1 2
C    4.373223  -1.026310  -2.699908
C    4.314717   0.163972  -0.085510
C    6.096275   2.411234   0.020825
C    5.268386   4.897414  -1.284163
C    5.840463   6.093535   1.303987
O    6.301386   8.153469   2.155138
N    5.844753   3.780435   2.435044
H    3.142652  -2.687115  -2.762534
H    6.290539  -1.621423  -3.201725
H    3.728222   0.310482  -4.141070
H    4.890234  -1.254759   1.310601
H    2.372551   0.722537   0.371596
H    8.076821   1.898740  -0.326923
H    3.281301   5.039786  -1.833526
H    6.492570   5.538976  -2.815692
H    6.883233   3.585037   4.027195

