%chk=mol_2223.chk
# wB97XD/Def2SVP opt pop=full gfinput

C 5 H 6 O 2

1 2
C    3.160624  -0.623118   0.097510
O    1.695632  -2.918153   0.430442
C   -0.329663  -1.912649  -1.101861
C   -2.595690  -1.015369   0.227523
C   -2.447611   1.493507   0.451361
O   -0.324523   2.697716  -0.519599
C    1.110913   0.576480  -1.554886
H    4.952273  -1.002670  -0.861639
H    3.520635   0.312334   1.905921
H   -0.697611  -3.064569  -2.778370
H   -4.105846  -2.201644   0.908165
H   -3.783364   2.756543   1.333599
H    1.672351   0.923452  -3.515250

