%chk=mol_5725.chk
# wB97XD/Def2SVP opt pop=full gfinput

C 4 H 10 N 2 O 1

1 2
N    5.208444  -0.622268   3.485354
C    4.874662  -0.612026   0.751601
C    5.945796   1.791196  -0.447336
C    8.750490   2.254028   0.068578
C   10.339315   0.115141  -0.910527
N   11.366401   0.234855  -3.127081
O   12.668044  -2.023330  -3.583450
H    4.404593  -2.214740   4.216640
H    4.241830   0.856518   4.258384
H    2.856094  -0.751204   0.311578
H    5.784924  -2.287041  -0.051325
H    4.870977   3.432385   0.226068
H    5.638697   1.684105  -2.495308
H    9.123333   2.471592   2.091228
H    9.333622   4.005558  -0.870446
H   10.514304  -1.576466   0.300183
H   13.362650  -1.741553  -5.267990

