%chk=mol_5169.chk
# wB97XD/Def2SVP opt pop=full gfinput

C 4 H 9 N 1 O 2

1 2
C    4.560571  -1.403840  -2.219483
N    4.906032  -0.413718   0.329965
C    5.585615   2.296962   0.305229
C    8.357730   2.737363  -0.373126
O    9.943852   1.079034  -0.678563
O    8.821033   5.270503  -0.517501
C   11.389663   5.887290  -1.060155
H    4.009980  -3.393551  -2.105419
H    6.292882  -1.292875  -3.342151
H    3.047183  -0.400338  -3.210286
H    6.359023  -1.381843   1.164449
H    5.297507   3.037829   2.215987
H    4.368952   3.346781  -0.998418
H   11.583851   7.945486  -0.987344
H   11.893804   5.247977  -2.962373
H   12.658217   5.065657   0.351073

