%chk=mol_2075.chk
# wB97XD/Def2SVP opt pop=full gfinput

C 5 H 12 N 2

1 2
N    1.814723   4.689280  -2.534066
C    4.330270   3.547658  -2.472026
C    5.795563   4.371315  -0.112231
C    8.374132   3.182507  -0.016460
C   10.543463   4.502934  -0.044125
C   13.117326   3.352601   0.085264
N   14.562211   4.105241  -2.127681
H    0.930067   4.181945  -4.168415
H    1.983343   6.608051  -2.591098
H    5.364007   4.091465  -4.183003
H    4.123893   1.486988  -2.498860
H    4.755439   3.812145   1.591830
H    5.945324   6.439450  -0.070166
H    8.429993   1.129981   0.108451
H   10.484749   6.556121  -0.143733
H   13.029114   1.286847   0.191921
H   14.074794   4.027347   1.791668
H   13.726064   3.357174  -3.692695
H   16.311909   3.311254  -2.030057

