%chk=mol_5994.chk
# wB97XD/Def2SVP opt pop=full gfinput

C 5 H 9 N 1 O 1

1 2
O    1.982342   0.269853   0.393706
C    4.636670  -0.031880   0.095431
C    5.229836  -2.699077  -0.791871
C    5.205232  -2.508044  -3.672872
N    6.123771   0.052742  -4.304135
C    4.128334   1.953089  -4.425455
C    5.595612   1.590488  -2.018662
H    1.689850   2.037560   0.808954
H    5.556570   0.384956   1.899836
H    3.884634  -4.109644  -0.102726
H    7.134510  -3.229655  -0.170945
H    6.459046  -3.931594  -4.501025
H    3.305471  -2.849461  -4.429159
H    4.547909   3.602820  -5.564280
H    2.182785   1.322846  -4.533718
H    7.056521   2.916490  -1.491995

