%chk=mol_6538.chk
# wB97XD/Def2SVP opt pop=full gfinput

C 4 H 4 N 2 S 1

1 2
C    5.408661  -2.376009   0.818497
C    4.452516  -0.112533   0.210761
C    5.837043   2.196164   0.078764
N    4.828704   4.402495  -0.529237
N    6.541438   6.367678  -0.531183
C    8.817387   5.596632   0.078688
S    9.048633   2.435517   0.698915
H    4.183003  -4.023435   0.863567
H    7.378870  -2.695751   1.283729
H    2.449917   0.028781  -0.228808
H   10.416039   6.863334   0.179600

