%chk=mol_3322.chk
# wB97XD/Def2SVP opt pop=full gfinput

C 6 H 8 O 1

1 2
C    5.097687  -2.241083  -0.554408
O    4.138141   0.209967  -0.035130
C    6.064112   2.073332   0.011924
C    5.154323   4.286598   1.534212
C    5.068264   6.366695   0.082071
C    5.842977   5.722034  -2.448556
C    6.401126   3.251009  -2.549127
H    3.509713  -3.562474  -0.605978
H    6.398292  -2.839616   0.938155
H    6.049977  -2.287608  -2.389124
H    7.845066   1.349586   0.783537
H    4.637558   4.182663   3.502305
H    4.467974   8.226034   0.666091
H    5.902257   7.041044  -4.002742
H    7.002475   2.239987  -4.212502

