%chk=mol_4834.chk
# wB97XD/Def2SVP opt pop=full gfinput

C 5 H 5 N 1 O 1

1 2
C    1.875383  -0.144129  -0.562553
C    4.720233  -0.103330  -0.377681
O    5.929412  -2.086107  -0.532865
C    6.054683   2.363178   0.000000
C    4.785977   4.540199   0.331174
C    8.711637   2.363178   0.000000
N   10.886731   2.363178   0.000000
H    1.239887   1.065163  -2.113148
H    1.033264   0.448772   1.228813
H    1.245424  -2.073672  -0.964970
H    2.741256   4.666036   0.356194
H    5.791652   6.314350   0.601840

