%chk=mol_4119.chk
# wB97XD/Def2SVP opt pop=full gfinput

C 4 H 4 N 2 O 1

1 2
C    1.904901   0.056975  -0.010942
C    4.695724   0.121434  -0.003137
N    6.198963   2.054132   0.000907
C    8.596704   0.991634   0.003817
N    8.754213  -1.458585   0.001512
C    6.281109  -2.227042  -0.003534
O    5.408699  -4.349394  -0.007994
H    1.150805   1.979620   0.010582
H    1.230986  -0.954217   1.659274
H    1.240681  -0.912757  -1.709390
H   10.279845   2.217631   0.007880

