%chk=mol_5889.chk
# wB97XD/Def2SVP opt pop=full gfinput

C 4 H 6 N 2 O 1

1 2
N    2.132726  -0.172097  -0.373882
N    4.693872  -0.098247   0.143581
C    6.148054  -2.204573   0.282533
C    8.535326  -1.549273   0.778926
C    8.791384   1.285165   0.992994
C    6.073901   2.128531   0.525892
O    5.280934   4.294403   0.498944
H    1.662241   1.566810  -1.089729
H    1.208253  -0.252260   1.318613
H    5.367559  -4.071566   0.007918
H   10.090628  -2.854375   0.988421
H    9.399989   1.846829   2.883476
H   10.037451   2.040337  -0.468936

