%chk=mol_2568.chk
# wB97XD/Def2SVP opt pop=full gfinput

C 5 H 8 O 2

1 2
C    2.136411  -0.042065   0.215183
C    4.995094  -0.071753   0.017934
O    5.999503   2.109426   1.256800
C    8.368331   1.288132   2.236340
C    8.040312  -1.488783   2.472045
C    9.442565  -3.060865   3.863621
O    5.962823  -2.335002   1.142623
H    1.312453  -1.685636  -0.733289
H    1.354291   1.687677  -0.607264
H    1.541657  -0.109793   2.198186
H    5.571215  -0.026097  -1.972950
H    9.854998   1.765873   0.879856
H    8.723297   2.228271   4.041085
H    8.996400  -5.061424   3.937452
H   11.044561  -2.393678   4.950516

