%chk=mol_0625.chk
# wB97XD/Def2SVP opt pop=full gfinput

C 5 H 10 O 1

1 2
C    1.663280  -0.040837   0.224178
C    4.523003  -0.011508  -0.071299
C    5.345412   0.036887  -2.833871
C    5.910799   1.922570   1.604510
O    7.556996  -0.027042   2.605233
C    5.945041  -1.972723   1.545928
H    1.102372  -0.077252   2.215742
H    0.845142  -1.708237  -0.688049
H    0.816626   1.639470  -0.635250
H    7.406933   0.058808  -3.017194
H    4.611744   1.718649  -3.790035
H    4.643001  -1.629152  -3.839829
H    4.798978   2.792675   3.119031
H    6.978210   3.389999   0.613670
H    7.037038  -3.390112   0.510075
H    4.848433  -2.907344   3.031801

