%chk=mol_0849.chk
# wB97XD/Def2SVP opt pop=full gfinput

C 5 H 6 O 1

1 2
O    1.956792  -0.093031  -0.199631
C    4.655265   0.008201   0.066499
C    6.113094  -1.335715  -1.956604
C    6.049202   1.508568  -1.914198
C    8.288225   2.851616  -1.193457
C   10.166348   3.980141  -0.595396
H    1.146024   1.187447   0.841665
H    5.424875  -0.060207   1.967432
H    5.054734  -2.293712  -3.424978
H    7.835919  -2.297265  -1.409074
H    4.909111   2.414068  -3.360840
H   11.832690   4.977879  -0.070147

