%chk=mol_3987.chk
# wB97XD/Def2SVP opt pop=full gfinput

C 5 H 8 N 2

1 2
C   -1.924157   0.076402  -1.919678
C   -1.095871   1.973082   0.175574
C   -1.920472  -0.117390   2.085880
C   -1.029504  -1.986499  -0.007672
N    1.752891  -2.197959  -0.058336
C    2.846872  -0.012434   0.023603
N    1.608025   2.250645   0.243907
H   -3.961868   0.060906  -2.297756
H   -0.927515   0.176784  -3.728562
H   -2.091889   3.776070   0.278149
H   -0.919767  -0.191751   3.893762
H   -3.957087  -0.169641   2.464978
H   -1.988842  -3.810935  -0.094600
H    4.917880   0.172286  -0.101554
H    2.363084   3.739503  -0.694701

