%chk=mol_2824.chk
# wB97XD/Def2SVP opt pop=full gfinput

C 6 H 8 O 1

1 2
C    1.889726   0.000000   0.000000
C    4.618491   0.000000   0.000000
C    6.867567   0.000000   0.000000
C    9.596332   0.000000   0.000000
C   10.707717   2.620672  -0.306155
C    9.964942   4.110003  -2.619689
O   12.253173   3.472788   1.216984
H    1.145401   1.929316   0.018765
H    1.144947  -0.980806   1.661277
H    1.145098  -0.948094  -1.680231
H   10.343000  -1.180682  -1.527560
H   10.306416  -0.792249   1.776853
H   10.311744   2.980098  -4.313640
H   11.109549   5.827594  -2.731164
H    7.975419   4.648953  -2.510709

