%chk=mol_4403.chk
# wB97XD/Def2SVP opt pop=full gfinput

C 5 H 7 N 1 O 1

1 2
C    1.712942   0.130070   0.423261
C    4.527633  -0.176047   0.126498
C    5.559064  -2.490829  -0.094808
C    6.126398   2.202797   0.063098
O    5.313437   3.723252  -2.022952
C    6.001298   3.605654   2.478244
N    5.855713   4.744498   4.354855
H    1.260617   1.094851   2.195654
H    0.735085  -1.694461   0.448167
H    0.929821   1.227585  -1.145250
H    4.407333  -4.190845  -0.061000
H    7.580920  -2.761173  -0.329984
H    8.105848   1.721408  -0.312636
H    3.831854   4.661028  -1.472947

