%chk=mol_1168.chk
# wB97XD/Def2SVP opt pop=full gfinput

C 6 H 15 N 1

1 2
C    5.515203  -1.669724  -1.909833
C    4.631511  -0.064081   0.307723
C    5.610389   2.682787   0.245513
C    4.298050   4.191791   2.342523
C    8.515711   2.796341   0.482882
C    9.585958   5.482681   0.397598
N   12.343918   5.407829   0.427040
H    4.570359  -3.510412  -1.869676
H    7.550797  -2.019796  -1.837475
H    5.065373  -0.760558  -3.712575
H    5.198504  -0.980503   2.078245
H    2.558047  -0.045335   0.286671
H    5.065392   3.523319  -1.571402
H    4.909962   3.558487   4.215526
H    2.241915   3.973792   2.234034
H    4.695875   6.214251   2.178552
H    9.366541   1.714775  -1.066713
H    9.101507   1.872719   2.245958
H    8.942997   6.585941   2.024086
H    8.955431   6.447122  -1.321372
H   12.949972   4.555997   2.045118
H   13.029945   7.207075   0.475153

