%chk=mol_3622.chk
# wB97XD/Def2SVP opt pop=full gfinput

C 6 H 6 O 1

1 2
O    4.141675  -1.669195  -0.951836
C    3.903286   0.415305   0.020541
C    6.038167   2.214381   0.098190
C    6.713139   3.717961  -2.224378
C    5.527411   5.022892   0.008485
C    7.060225   6.662210   1.527976
C    8.337869   8.035192   2.800480
H    2.117570   1.031790   0.898905
H    7.615464   1.555471   1.232895
H    5.576109   3.464907  -3.910750
H    8.702567   4.021923  -2.613038
H    3.580785   5.630401  -0.231057
H    9.476637   9.256275   3.928023

