%chk=mol_6047.chk
# wB97XD/Def2SVP opt pop=full gfinput

C 4 H 3 N 1 O 2

1 2
O    1.910967   0.010715   0.375999
C    4.206133   0.108999   0.143298
O    5.559083   2.272018  -0.002400
C    8.169078   2.020004  -0.265847
C    9.356941  -0.201199  -0.376981
N    8.142509  -2.472744  -0.244757
C    5.706028  -2.332111   0.001493
H    9.082175   3.845026  -0.365700
H   11.400246  -0.275768  -0.583736
H    4.553352  -4.060152   0.125346

