%chk=mol_0985.chk
# wB97XD/Def2SVP opt pop=full gfinput

C 4 H 11 N 1 O 1

1 2
C    1.909493  -0.048698  -0.136268
C    4.785354   0.023886   0.186308
C    5.550031  -1.394769   2.596918
N    6.019836  -1.240171  -1.977806
C    5.720466   2.793525   0.289714
O    8.415915   2.862784   0.205035
H    1.317971   0.920334  -1.870394
H    0.961719   0.881897   1.454012
H    1.206779  -1.994927  -0.234061
H    4.728567  -0.498207   4.274390
H    7.605978  -1.427518   2.851672
H    4.894901  -3.360349   2.557914
H    5.391502  -0.455292  -3.625005
H    5.463841  -3.086528  -2.040394
H    5.098632   3.743604   2.019909
H    5.020190   3.878795  -1.329479
H    8.875231   1.410492  -0.849356

