%chk=mol_1494.chk
# wB97XD/Def2SVP opt pop=full gfinput

C 6 H 13 N 1

1 2
C    6.268354  -3.277163   1.059040
C    5.292405  -0.851718  -0.178126
N    2.524617  -0.808538  -0.002721
C    6.372421   1.545267   1.077163
C    9.150753   1.912478   0.584984
C   10.038206   3.575362  -1.549878
C   10.342225   4.439288   1.140488
H    8.306367  -3.494255   0.781572
H    5.365443  -4.947473   0.234704
H    5.894812  -3.292772   3.095938
H    5.809831  -0.869973  -2.183465
H    1.989863  -0.831876   1.849173
H    1.802723  -2.414409  -0.784350
H    6.064736   1.472531   3.127081
H    5.334092   3.202198   0.385088
H   10.273836   0.268322   1.063991
H    8.641037   4.531412  -2.705370
H   11.721972   3.014113  -2.571048
H   12.228323   4.451023   1.938878
H    9.145387   5.965525   1.802100

