%chk=mol_4884.chk
# wB97XD/Def2SVP opt pop=full gfinput

C 4 H 9 N 1 O 2

1 2
C    4.393141  -2.141740   1.467694
C    7.148947  -1.727625   0.805307
O    7.504084   0.881387   0.230981
C   10.063075   1.394372  -0.464287
C   10.497976   4.202675  -0.984434
N    8.424664   5.703761  -0.672742
O   12.544286   5.079697  -1.629208
H    4.038231  -4.121682   1.941712
H    3.175552  -1.606192  -0.117333
H    3.843608  -0.960151   3.075000
H    7.660005  -2.883892  -0.834333
H    8.344879  -2.256730   2.410402
H   10.530102   0.351527  -2.189739
H   11.328606   0.837186   1.075670
H    6.758757   4.908185  -0.158813
H    8.556075   7.579994  -0.988308

