%chk=mol_0194.chk
# wB97XD/Def2SVP opt pop=full gfinput

C 5 H 12

1 2
C    1.868334  -0.020787  -0.010280
C    4.769064  -0.014192   0.020163
C    5.714059  -1.358827   2.410591
C    5.763873  -1.400004  -2.326102
C    5.729990   2.722906   0.006482
H    1.135026   0.930879  -1.697314
H    1.099839   0.955068   1.647029
H    1.123820  -1.953467  -0.004157
H    5.035988  -0.409050   4.121663
H    7.783669  -1.387758   2.484895
H    5.054356  -3.320986   2.476392
H    5.116906  -0.483940  -4.067333
H    5.110538  -3.364922  -2.368375
H    7.834597  -1.424343  -2.359607
H    5.086633   3.733967  -1.682744
H    7.799901   2.789973   0.030047
H    5.047572   3.764410   1.661523

