%chk=mol_5173.chk
# wB97XD/Def2SVP opt pop=full gfinput

C 4 H 8 N 2 O 1

1 2
C    1.792405  -0.101648  -0.120791
N    4.460982   0.130353  -0.743551
C    5.592928   2.200095  -0.150422
N    4.549705   4.313923   0.951080
C    8.422680   2.360363  -0.794365
C    9.811704  -0.069693  -1.227264
O    9.388613   4.466557  -0.920278
H    1.188543  -2.050202  -0.462114
H    0.637820   1.128337  -1.318178
H    1.423134   0.314432   1.872492
H    2.704141   4.620966   0.562553
H    5.635636   5.889521   0.715772
H    9.118155  -0.982658  -2.944590
H    9.573503  -1.315608   0.402455
H   11.827267   0.327357  -1.454938

