%chk=mol_0405.chk
# wB97XD/Def2SVP opt pop=full gfinput

C 4 H 8 N 2

1 2
C    1.861701  -0.566200   0.292341
C    4.702791  -0.595698   0.043464
C    5.932909  -2.816769   0.053007
N    5.972423   1.680326  -0.189880
C    5.069266   4.086325  -0.239825
N    6.398556   6.109825  -0.466932
H    1.295067   0.479064   1.986045
H    1.070190  -2.472669   0.449188
H    0.998853   0.324768  -1.364174
H    4.930012  -4.597930   0.236518
H    7.972698  -2.931381  -0.120810
H    7.871012   1.499743  -0.347880
H    3.000564   4.249503  -0.065441
H    8.272276   5.667931  -0.609115

