%chk=mol_1762.chk
# wB97XD/Def2SVP opt pop=full gfinput

C 5 H 10 N 2

1 2
C    1.824379   0.095374  -0.180620
N    4.600142   0.089592  -0.266527
C    5.894566  -2.209071  -0.329247
C    5.019396  -4.570983  -0.548266
C    5.863782   2.394982   0.024075
C    4.630396   4.529012   1.487536
N    8.063933   2.895174  -0.931219
H    1.042826   1.925744  -0.749087
H    1.163920  -0.341946   1.731273
H    1.025101  -1.286563  -1.497891
H    7.925644  -1.978713  -0.095790
H    3.030894  -5.009626  -0.744836
H    6.322929  -6.155821  -0.526459
H    3.482482   3.784025   3.036015
H    3.440303   5.635938   0.209949
H    6.076849   5.771639   2.287249
H    8.650807   1.379784  -1.975331

