%chk=mol_2971.chk
# wB97XD/Def2SVP opt pop=full gfinput

C 5 H 10 O 2

1 2
C    1.718971  -0.763922   0.150498
C    4.477196  -0.176463  -0.046355
C    5.584349   2.121955  -0.064005
C    4.210650   4.596457   0.213690
O    4.040215   5.794524  -2.182199
C    8.400645   2.370340  -0.349788
O    8.904957   3.644753  -2.663248
H    1.375985  -1.958418   1.803441
H    1.114787  -1.807429  -1.531434
H    0.518560   0.905254   0.309858
H    5.665626  -1.845695  -0.244209
H    5.224904   5.857358   1.507983
H    2.301422   4.396353   0.972718
H    5.763268   5.820564  -2.854771
H    9.376689   0.545791  -0.380761
H    9.199432   3.480101   1.205059
H    8.428141   2.469570  -4.000154

