%chk=mol_4705.chk
# wB97XD/Def2SVP opt pop=full gfinput

C 5 H 10 N 2

1 2
C   -1.665812  -0.067444  -2.110465
C   -1.130396   2.047159  -0.147304
C   -2.115473   0.062569   1.772828
N   -1.284636  -1.969208  -0.034506
C    1.472229  -2.321755   0.332478
C    3.040210   0.097037  -0.144829
N    1.611861   2.444172   0.300126
H   -3.614611  -0.053498  -2.827616
H   -0.422278  -0.214560  -3.758816
H   -2.231049   3.786936  -0.299937
H   -1.255761   0.040667   3.657508
H   -4.174254   0.105201   2.033855
H    1.804027  -3.002945   2.262739
H    2.129192  -3.818721  -0.940328
H    3.683001   0.093239  -2.116720
H    4.738829   0.087759   1.037327
H    2.383795   3.855892  -0.756193

