%chk=mol_0810.chk
# wB97XD/Def2SVP opt pop=full gfinput

C 5 H 10 O 1

1 2
C    2.367883  -0.416061  -0.536852
O    5.035610  -0.121283  -0.481672
C    5.739967   2.403921   0.134246
C    8.560346   2.547086   0.181546
C   10.018081   3.399372  -2.112506
C    9.875539   5.073858   0.179959
H    1.939653  -2.399234  -0.926136
H    1.546193   0.744174  -2.037994
H    1.539465   0.090102   1.289096
H    4.999441   2.890771   2.006058
H    4.942182   3.710988  -1.261808
H    9.372588   1.062423   1.337265
H    8.976048   3.961244  -3.784630
H   11.794178   2.459667  -2.513846
H   11.560513   5.271372   1.328610
H    8.742270   6.774933   0.055615

