%chk=mol_2081.chk
# wB97XD/Def2SVP opt pop=full gfinput

C 5 H 8 N 2

1 2
N    1.653113  -0.032031  -1.431619
C    3.843949  -0.060226  -1.465275
C    6.617046  -0.073284  -1.497230
C    7.654166   1.205910   0.876795
N   10.430173   1.158478   0.824922
C   11.582907   3.575834   0.160268
C   11.566126   2.649509   2.851219
H    7.291451   0.908165  -3.191747
H    7.297763  -2.028508  -1.609347
H    7.005120   0.167146   2.551811
H    6.879869   3.126382   1.041957
H   10.382117   5.157100  -0.336579
H   13.346437   3.469783  -0.875378
H   13.312289   1.912573   3.625685
H   10.336254   3.575211   4.200767

