%chk=mol_2388.chk
# wB97XD/Def2SVP opt pop=full gfinput

C 7 H 14

1 2
C    1.743669   0.260896  -0.510226
C    4.556092   0.211158  -0.008277
C    5.164054  -0.003024   2.774609
C    6.220222  -1.196046  -1.861399
C    6.365921   1.659236  -1.771807
C    5.310716   3.128819  -3.983184
C    8.739379   2.842639  -0.708326
H    1.278078  -0.000850  -2.507005
H    0.941556   2.062353   0.114895
H    0.798239  -1.261317   0.526421
H    7.156790  -0.416685   3.135301
H    4.071094  -1.535875   3.636211
H    4.680039   1.759146   3.745078
H    5.344750  -2.082081  -3.490986
H    7.798522  -2.283375  -1.131058
H    3.830154   2.105155  -4.998269
H    6.804488   3.536056  -5.357203
H    4.526404   4.928368  -3.330283
H    9.740480   1.598198   0.603371
H    8.275734   4.597439   0.284196
H   10.066155   3.293566  -2.231956

