%chk=mol_2540.chk
# wB97XD/Def2SVP opt pop=full gfinput

C 5 H 6 O 2

1 2
C    1.814477  -0.129484  -0.007257
C    4.581244   0.198194  -0.008617
C    6.161736   2.257467  -0.002079
O    5.362854   4.661841   0.008258
C    8.664451   1.353308  -0.008277
C    8.462496  -1.240662  -0.018500
O    5.995704  -1.962027  -0.018859
H    0.843082   1.695973   0.016138
H    1.214187  -1.197576   1.658405
H    1.208253  -1.158119  -1.695481
H    6.803524   5.803727   0.011263
H   10.403453   2.419624  -0.005839
H    9.820510  -2.765954  -0.026059

