%chk=mol_0335.chk
# wB97XD/Def2SVP opt pop=full gfinput

C 5 H 1 N 1

1 2
C    1.624257   0.000000   0.000000
C    3.889699   0.000000   0.000000
C    6.785761   0.000000   0.000000
C    9.052695   0.000000   0.000000
C   11.947000   0.000000   0.000000
N   14.138988   0.000000   0.000000
H   -0.389888   0.000000   0.000000

