%chk=mol_6253.chk
# wB97XD/Def2SVP opt pop=full gfinput

C 4 H 8 N 2 O 1

1 2
O    6.264612  -0.937077  -2.103624
C    4.010623  -0.602256  -0.659118
C    4.150462   1.920982   0.756760
N    6.268429   1.879389   2.551433
C    6.759380   4.406501   3.587551
C    8.873927   4.414362   5.415861
N   10.545976   4.461492   6.835857
H    6.171184  -2.617120  -2.845606
H    3.818758  -2.187604   0.657436
H    2.399253  -0.606432  -1.955243
H    2.374233   2.253139   1.765136
H    4.429877   3.438205  -0.626898
H    7.831706   1.264076   1.586444
H    5.059590   5.105227   4.543582
H    7.204430   5.727079   2.054038

