%chk=mol_3025.chk
# wB97XD/Def2SVP opt pop=full gfinput

C 6 H 10 O 1

1 2
C    0.622967   6.201797  -1.344729
C    2.787573   4.895903  -0.097982
C    5.129681   5.835701   0.015666
O    7.056180   4.549950   1.179850
C    9.397740   5.941261   1.142321
C   11.737826   4.354099   1.443694
C   11.111760   5.485138  -1.080092
H   -0.880764   6.546106   0.032144
H   -0.139197   5.015749  -2.857606
H    1.174843   8.018542  -2.165683
H    2.406491   3.068934   0.760615
H    5.654741   7.636213  -0.798768
H    9.437897   7.786239   2.042586
H   11.501875   2.333283   1.678322
H   13.302085   5.149863   2.496801
H   12.249564   7.051305  -1.744293
H   10.457782   4.227034  -2.557914

