%chk=mol_4734.chk
# wB97XD/Def2SVP opt pop=full gfinput

C 5 H 11 N 1 O 1

1 2
C    1.796978   0.191354  -0.088118
C    4.673425  -0.217281  -0.054821
N    5.221106  -2.027128   1.997289
C    5.543417  -1.451215  -2.575829
O    4.580470  -3.969351  -2.784190
C    5.984347   2.304200   0.302148
C    7.496222   3.041892   2.198999
H    1.235616   1.425364  -1.655721
H    1.133458   1.075916   1.665567
H    0.769194  -1.593852  -0.311899
H    4.613993  -1.271427   3.662913
H    7.131864  -2.228346   2.152001
H    7.609587  -1.572932  -2.671222
H    4.889345  -0.374676  -4.218322
H    4.523985  -4.577956  -1.035135
H    5.625507   3.678220  -1.192568
H    7.972547   1.834659   3.784479
H    8.305081   4.929558   2.202721

