%chk=mol_3761.chk
# wB97XD/Def2SVP opt pop=full gfinput

C 5 H 8 O 2

1 2
O    1.856826  -0.012642   0.295005
C    4.522851   0.028762  -0.086360
C    5.129907  -1.257499  -2.585485
C    4.497189  -4.019202  -2.384967
O    6.052377  -5.707162  -2.742786
C    5.306087   2.753784  -0.112968
C    6.954759   3.792510   1.502880
H    1.524121   0.983943   1.807221
H    5.397871  -0.995621   1.488405
H    7.137080  -1.072854  -3.057634
H    4.003309  -0.482920  -4.140787
H    2.505531  -4.472849  -1.959703
H    4.445751   3.944954  -1.553657
H    7.871616   2.698264   2.976357
H    7.429817   5.785983   1.373963

