%chk=mol_3493.chk
# wB97XD/Def2SVP opt pop=full gfinput

C 5 H 8 O 2

1 2
O    2.929586  -0.519202  -1.491202
C    5.244878   0.099872  -0.259781
C    6.709473  -1.991167   0.974645
C    7.640295  -0.838018  -1.435908
O    9.479906   1.186918  -1.279930
C    8.099347   3.502702  -0.916706
C    5.659087   2.791428   0.459317
H    1.526370  -0.529463  -0.303830
H    5.951711  -3.890228   0.877286
H    7.757156  -1.595836   2.687871
H    7.521148  -1.923987  -3.166463
H    9.243085   4.844823   0.160022
H    7.695418   4.301017  -2.782678
H    5.917507   2.943910   2.509594
H    4.102293   4.042124  -0.079879

