%chk=mol_4110.chk
# wB97XD/Def2SVP opt pop=full gfinput

C 4 H 6 N 2 O 1

1 2
C    1.991790  -0.091330  -0.008768
C    4.766267   0.183776  -0.012264
N    6.134146   2.266046  -0.016837
C    8.574575   1.382183  -0.018274
C    8.579697  -1.215170  -0.014608
N   10.366036  -2.994120  -0.013285
O    6.136262  -2.010631  -0.011244
H    1.074706   1.761508   0.014778
H    1.370278  -1.142547   1.659274
H    1.363059  -1.103921  -1.697881
H   10.175420   2.647563  -0.021600
H   12.237885  -2.594915  -0.026078
H    9.891034  -4.849888  -0.019200

