%chk=mol_1513.chk
# wB97XD/Def2SVP opt pop=full gfinput

C 6 H 7 N 1

1 2
C    1.877613  -0.076364  -0.022374
C    4.762110   0.000000   0.000000
N    5.764383  -1.337302  -2.195427
C    5.672996   2.572238   0.000000
C    6.423746   4.692322   0.000000
C    7.387998   7.419802   0.000057
C    8.146647   9.560692   0.000113
H    1.102863   0.892442   1.636749
H    1.184216  -2.027298   0.009845
H    1.096495   0.852040  -1.702662
H    5.431621  -0.970015   1.702624
H    5.160728  -0.458448  -3.799124
H    5.031622  -3.114741  -2.251533
H    8.821998  11.453630  -0.000605

