%chk=mol_5670.chk
# wB97XD/Def2SVP opt pop=full gfinput

C 5 H 9 N 1 O 1

1 2
N    2.167913   0.272593   1.796978
C    4.124063   0.386071  -0.143166
C    6.151795   2.150301   0.693095
O    7.441571   3.410767  -1.328043
C    5.932871   4.970830   0.307817
C    7.093390   6.656768   2.174942
C    6.087318   7.335066   4.396958
H    0.813225  -0.979124   1.242608
H    1.291533   1.982833   1.911987
H    3.284136   0.980031  -1.941580
H    4.924891  -1.501501  -0.418555
H    7.278450   1.415405   2.234110
H    4.191564   5.698224  -0.494069
H    8.945169   7.401509   1.676641
H    4.253471   6.643257   4.998004
H    7.096848   8.594664   5.664454

