%chk=mol_2494.chk
# wB97XD/Def2SVP opt pop=full gfinput

C 5 H 10 O 2

1 2
C    1.926066  -0.256474   0.446920
C    4.718155   0.093088  -0.162535
C    5.279385   0.137685  -2.999506
O    4.175520   2.315859  -4.144944
C    6.064887   2.145406   1.400816
C    7.623741  -0.029839   2.467869
O    6.186302  -1.883301   1.065673
H    1.621139  -0.475568   2.483799
H    1.167813  -1.944887  -0.482882
H    0.815606   1.374114  -0.178768
H    4.552766  -1.553846  -3.948148
H    7.318456   0.221306  -3.347650
H    2.385571   1.965542  -4.374546
H    4.895014   3.120826   2.797588
H    7.154333   3.535394   0.328793
H    9.615380  -0.045883   1.914633
H    7.455310  -0.320082   4.506940

