%chk=mol_3436.chk
# wB97XD/Def2SVP opt pop=full gfinput

C 5 H 10 O 2

1 2
C    2.870948   0.151764   3.968841
O    5.447476   0.863378   3.674232
C    5.868374   2.691027   1.717213
C    4.810619   5.266780   2.482684
C    8.723524   2.892925   1.333277
C    9.682182   0.574023  -0.000945
O   10.839752   0.656566  -2.013749
H    2.772361  -1.318840   5.417448
H    2.116928  -0.611742   2.202173
H    1.725547   1.746976   4.609307
H    4.966087   2.042511  -0.033921
H    5.430468   5.782298   4.389342
H    2.742635   5.242743   2.506268
H    5.396321   6.747173   1.162578
H    9.722263   3.027247   3.141348
H    9.208522   4.539746   0.176708
H    9.352935  -1.241531   0.969184

