%chk=mol_1631.chk
# wB97XD/Def2SVP opt pop=full gfinput

C 5 H 10 N 2

1 2
C    2.058441   0.061284   0.573664
N    4.768138  -0.007786  -0.005556
C    5.428692  -2.428884  -1.260787
C    5.168250  -1.920396  -4.036266
N    7.146623  -0.688578  -5.516394
C    5.165396   0.863416  -4.381424
C    5.424043   2.034895  -1.814213
H    1.568057   1.846848   1.498477
H    1.571232  -1.445792   1.906110
H    0.869217  -0.148117  -1.108343
H    4.237900  -4.003574  -0.639332
H    7.388640  -2.915375  -0.802472
H    3.774936  -3.048412  -5.013141
H    8.783674  -0.560625  -4.497510
H    3.770060   1.715871  -5.603945
H    7.382933   2.622543  -1.489085
H    4.229887   3.711120  -1.595893

