%chk=mol_6346.chk
# wB97XD/Def2SVP opt pop=full gfinput

C 4 H 5 N 1 O 2

1 2
O    2.053225   0.114347  -0.799279
N    4.388152   0.053252   0.450378
C    5.420207   2.255502   0.491631
O    7.706095   2.599734   1.629454
C    8.418938   5.193119   1.432564
C    6.317430   6.373593   0.036869
C    4.550801   4.680738  -0.527630
H    1.503296  -1.640547  -0.670739
H   10.206241   5.334980   0.407860
H    8.632798   5.987503   3.327505
H    6.239630   8.353232  -0.453156
H    2.800139   4.939385  -1.525557

