%chk=mol_0969.chk
# wB97XD/Def2SVP opt pop=full gfinput

C 4 H 7 N 1 O 1

1 2
C    1.924119   0.109075   0.126007
C    4.730476  -0.167770  -0.006293
C    5.953053  -2.370718   0.261727
C    6.198359   2.192744  -0.467310
N    8.636029   2.302593  -0.634060
O    9.358661   4.807123  -1.071815
H    1.395771   1.392804   1.660087
H    0.987004  -1.703947   0.469994
H    1.188316   0.871995  -1.650808
H    4.939838  -4.121209   0.598892
H    7.999835  -2.490187   0.152312
H    5.040920   3.920558  -0.667754
H   11.194757   4.675220  -1.163334

