%chk=mol_2628.chk
# wB97XD/Def2SVP opt pop=full gfinput

C 6 H 12 O 1

1 2
C    4.225106  -0.909960  -2.709489
C    4.596457   0.063816  -0.032560
C    6.161301   2.477374  -0.040346
C    4.871261   4.915990  -1.023362
C    6.167121   6.369076   1.149861
O    8.482829   7.663538   0.533791
C    6.433081   3.820403   2.546198
H    3.133752  -2.665856  -2.690573
H    6.043949  -1.287376  -3.618996
H    3.210002   0.468161  -3.870159
H    5.560500  -1.387248   1.089087
H    2.747416   0.386543   0.846144
H    8.014707   2.166401  -0.926268
H    2.803201   4.919978  -0.894199
H    5.417202   5.482965  -2.934518
H    4.895505   7.689560   2.111504
H    9.539791   6.420893  -0.310841
H    8.235275   3.506274   3.508106
H    4.894485   3.455723   3.885201

