%chk=mol_2478.chk
# wB97XD/Def2SVP opt pop=full gfinput

C 6 H 8 O 1

1 2
C    1.794881  -0.036793   0.017197
C    4.624651   0.002098   0.009921
C    5.938521   2.170766  -0.001266
O    8.515503   2.385515  -0.015023
C    9.975449   0.095015  -0.079123
C    8.504486  -2.330543  -0.023452
C    5.977261  -2.362989   0.019048
H    1.040899  -1.963577  -0.024566
H    1.052313   0.954047  -1.641095
H    1.061648   0.881954   1.720085
H    5.070041   4.023303   0.004479
H   11.264903   0.146303   1.539163
H   11.129315   0.150706  -1.796903
H    9.562392  -4.086155  -0.022072
H    4.941313  -4.131792   0.058638

