%chk=mol_0660.chk
# wB97XD/Def2SVP opt pop=full gfinput

C 6 H 12

1 2
C    1.381900   2.386913  -0.419746
C   -1.375343   2.382945   0.428760
C   -2.752292   0.002702  -0.441346
C   -1.377270  -2.387820   0.401586
C    1.379632  -2.384891  -0.446750
C    2.757753  -0.004894   0.421673
H    1.465142   2.539376  -2.485708
H    2.344942   4.052008   0.347445
H   -2.337062   4.057639  -0.319042
H   -1.459095   2.510615   2.496309
H   -4.681570  -0.000718   0.310293
H   -2.908591   0.014551  -2.508309
H   -1.461382  -2.539376   2.467642
H   -2.340539  -4.053274  -0.365397
H    2.341560  -4.059680   0.301544
H    1.463517  -2.513808  -2.514092
H    2.911085  -0.016478   2.487012
H    4.686408  -0.001039  -0.331666

