%chk=mol_5413.chk
# wB97XD/Def2SVP opt pop=full gfinput

C 4 H 8 N 2 O 1

1 2
C    2.049106   0.154183  -1.062158
O    4.708611   0.438057  -0.644926
C    5.684391   2.708979   0.018198
N    4.353816   4.719307   0.337448
N    8.234803   2.531118   0.288637
C    9.925503   4.377248   0.933128
C   12.424307   4.124365   1.186597
H    1.698618  -1.805274  -1.617454
H    1.424135   1.389856  -2.597410
H    1.005844   0.538156   0.680831
H    2.486823   4.394010   0.035054
H    8.958757   0.792891  -0.032541
H    9.038069   6.208393   1.251188
H   13.369284   2.332262   0.885771
H   13.579704   5.736113   1.708898

