%chk=mol_0224.chk
# wB97XD/Def2SVP opt pop=full gfinput

C 5 H 9 N 1

1 2
C    0.440438   1.468695  -0.395425
C   -1.622859  -0.453874  -0.126479
C    1.099991  -1.254703   0.109680
N    2.080929  -1.914482   2.626304
C    1.835680  -4.625048   3.076493
C    4.357897  -3.460070   2.472593
H    0.828513   2.215175  -2.261605
H    0.692339   2.822325   1.121118
H   -2.640174  -1.018978  -1.810150
H   -2.766597  -0.400206   1.571610
H    1.865916  -2.288553  -1.497117
H    0.914193  -5.777308   1.658084
H    1.461344  -5.164319   5.014785
H    5.694009  -3.217599   4.004122
H    5.200791  -3.820195   0.644472

