%chk=mol_2728.chk
# wB97XD/Def2SVP opt pop=full gfinput

C 6 H 10 O 1

1 2
C    5.468678  -0.809672  -3.271929
C    5.329803  -1.258293  -0.472432
C    4.176332  -3.306227   0.490006
C    6.508595   0.733516   1.208915
C    9.307582   1.040861   0.882162
C   10.414697   3.308249  -0.440627
O   10.356153   3.125701   2.262323
H    4.619833   1.015218  -3.751711
H    4.463118  -2.268767  -4.341362
H    7.436091  -0.811581  -3.912130
H    3.313540  -4.722879  -0.717945
H    4.056467  -3.621660   2.514300
H    6.155896   0.274898   3.201253
H    5.539298   2.535332   0.865211
H   10.342868  -0.720137   0.919673
H    9.159408   4.663126  -1.317668
H   12.229911   3.104820  -1.358297

