%chk=mol_5984.chk
# wB97XD/Def2SVP opt pop=full gfinput

C 4 H 8 N 2 O 1

1 2
O    2.583822   0.326885   1.649731
C    4.553427   0.125705   0.431160
C    5.771602  -2.412160  -0.062153
C    7.549456  -2.381943  -2.315897
C    9.279481  -0.095771  -2.155951
N    7.737881   2.197052  -2.229537
N    5.856299   2.246072  -0.342759
H    4.282101  -3.814979  -0.373089
H    6.806113  -2.941680   1.652811
H    8.666794  -4.124516  -2.354259
H    6.455380  -2.320773  -4.076895
H   10.421688  -0.150743  -0.427626
H   10.580482  -0.088760  -3.764977
H    8.896112   3.727069  -1.983381
H    4.883166   3.881932  -0.054991

