%chk=mol_4223.chk
# wB97XD/Def2SVP opt pop=full gfinput

C 5 H 7 N 1 O 1

1 2
C    1.775133   0.038097   0.307307
C    4.632909   0.103028  -0.072925
O    5.099369   2.236415  -1.693573
N    7.420973   2.277611  -3.012545
C    8.241644   0.089668  -3.747478
C    7.178333  -2.385212  -3.088908
C    5.508136  -2.347871  -1.203510
H    1.122630   1.794163   1.183498
H    1.185369  -1.550123   1.495661
H    0.796803  -0.105844  -1.515126
H    5.572103   0.424300   1.747392
H    9.944854   0.028270  -4.930428
H    7.898866  -4.080580  -3.968652
H    4.768119  -4.096095  -0.443405

