%chk=mol_2086.chk
# wB97XD/Def2SVP opt pop=full gfinput

C 5 H 12 N 2

1 2
N    1.761773   4.771672  -2.101168
C    4.089027   5.113372  -0.652069
C    6.173338   3.392852  -1.680571
C    8.634234   3.579784  -0.140029
N   10.494632   1.769086  -1.100066
C    9.801764   6.165628  -0.243472
C   10.208282   7.636459   1.778176
H    0.390965   5.919643  -1.381900
H    1.118680   2.969138  -1.888328
H    3.719208   4.686200   1.340043
H    4.650654   7.099720  -0.780929
H    6.536034   3.860332  -3.670547
H    5.504130   1.427083  -1.646140
H    8.226734   3.068443   1.827838
H   10.751559   2.059915  -2.986769
H    9.783150  -0.012945  -0.942350
H   10.343813   6.874578  -2.094950
H    9.727838   7.020673   3.674913
H   11.070413   9.486860   1.569966

