%chk=mol_6482.chk
# wB97XD/Def2SVP opt pop=full gfinput

C 7 H 16

1 2
C    4.194493  -0.896354  -2.121558
C    6.449163   0.522944  -1.046795
C    5.866485   3.333741  -0.704490
C    8.120096   4.736938   0.445333
C    7.748992   7.621776   0.587025
C    5.491752   8.371789   2.228819
C   10.153536   8.868504   1.603508
H    4.656720  -2.898141  -2.363140
H    3.648910  -0.135682  -3.966554
H    2.563470  -0.763393  -0.855933
H    8.067826   0.290300  -2.318732
H    6.973807  -0.314772   0.773805
H    4.208911   3.532106   0.520185
H    5.384321   4.169189  -2.538412
H    9.806771   4.341532  -0.695495
H    8.498439   3.987171   2.341446
H    7.422429   8.341478  -1.330726
H    5.643365   7.562287   4.126709
H    3.711630   7.735348   1.393786
H    5.374797  10.429247   2.418831
H   10.566630   8.239886   3.531860
H    9.958819  10.928229   1.629435
H   11.782802   8.405766   0.414889

