%chk=mol_2304.chk
# wB97XD/Def2SVP opt pop=full gfinput

C 6 H 6 O 1

1 2
C    2.002694   0.044541   0.409598
C    4.479010  -0.076647  -0.062966
C    6.142951  -2.339519  -0.317304
C    8.684595  -1.237317  -0.889872
C    8.694818   1.291647  -0.973266
C    6.106102   2.179931  -0.460262
O    5.453844   4.381065  -0.384521
H    1.043658   1.857261   0.532903
H    0.881066  -1.649164   0.679243
H    5.522271  -3.561756  -1.865821
H    6.211643  -3.424373   1.442409
H   10.341791  -2.392412  -1.201223
H   10.248684   2.550204  -1.341195

