%chk=mol_2530.chk
# wB97XD/Def2SVP opt pop=full gfinput

C 6 H 8 O 1

1 2
C    2.064809   0.172872   0.332176
C    4.422394  -0.221136  -0.473906
O    5.083515  -2.580402  -1.440670
C    7.689712  -2.390069  -2.245033
C    8.619022   0.220550  -1.684691
C    7.544108   2.519099  -2.974316
C    6.475619   1.621480  -0.502837
H    1.483397   1.992584   1.069283
H    0.672138  -1.328421   0.254395
H    8.782427  -3.809008  -1.209651
H    7.787599  -2.810627  -4.268060
H   10.471992   0.303717  -0.836846
H    8.657762   4.237843  -2.960502
H    6.428073   2.263892  -4.673916
H    6.837521   2.680180   1.208820

