%chk=mol_1742.chk
# wB97XD/Def2SVP opt pop=full gfinput

C 6 H 13 N 1

1 2
C    1.773017   1.650128  -2.359550
N    4.520074   1.775946  -2.263646
C    5.370696   3.017647   0.050682
C    8.203604   3.066364   0.070128
C    9.763515   5.080623   0.100571
C    8.946020   7.802094   0.091897
C   12.587447   4.715868   0.130864
H    1.187976   0.711123  -4.106753
H    0.924586   3.537284  -2.338442
H    1.017844   0.550345  -0.778737
H    5.158688   2.796681  -3.768076
H    4.739792   1.942449   1.706101
H    4.550611   4.907694   0.196815
H    9.044645   1.184443   0.075495
H    6.899314   8.052860   0.054443
H    9.712210   8.765230  -1.571553
H    9.655631   8.760695   1.782371
H   13.124696   2.717086   0.137723
H   13.404186   5.590131   1.819107
H   13.440186   5.588714  -1.540240

