%chk=mol_3579.chk
# wB97XD/Def2SVP opt pop=full gfinput

C 5 H 6 O 2

1 2
O    1.682121   0.220474   0.017253
C    4.005520   0.116029   0.017971
C    5.342596  -2.413823   0.097359
C    8.151542  -2.320603   0.043804
C    9.398666  -0.131922  -0.039457
C    8.099707   2.359625  -0.083658
O    5.384983   2.256768  -0.040270
H    4.690829  -3.511225  -1.532662
H    4.748220  -3.376601   1.831088
H    9.176113  -4.099610   0.075022
H   11.452231  -0.123456  -0.076704
H    8.696179   3.482028   1.548838
H    8.644647   3.395932  -1.789268

