%chk=mol_3036.chk
# wB97XD/Def2SVP opt pop=full gfinput

C 5 H 8 O 2

1 2
C    2.462105   0.160173   0.390380
C    5.149655  -0.299049  -0.549457
C    5.161976  -1.712734  -3.043139
O    3.259097  -2.448802  -4.149990
C    6.547297   2.159050  -0.806611
C    8.384771   3.039379   1.185312
O    9.225680   1.883150  -1.117452
H    2.472518   1.147952   2.209657
H    1.446132  -1.627149   0.633342
H    1.383166   1.317801  -0.947093
H    6.116212  -1.525595   0.814264
H    7.053441  -2.133954  -3.813411
H    5.594421   3.548641  -1.969454
H    8.590940   1.958134   2.909706
H    8.700602   5.049934   1.397793

