%chk=mol_6324.chk
# wB97XD/Def2SVP opt pop=full gfinput

C 4 H 7 N 1 O 2

1 2
O    2.254991  -0.050777   0.761824
N    4.501989   0.090423  -0.663861
C    6.054928   2.266386  -0.176954
C    8.474421   1.569739  -1.550161
C    8.661597  -1.298903  -1.213809
C    5.969512  -2.089905  -0.686897
O    5.234296  -4.217812  -0.185496
H    2.095517  -1.872813   1.064955
H    6.366241   2.439070   1.862628
H    5.156042   3.975984  -0.905557
H    8.297409   2.013106  -3.568313
H   10.129310   2.572276  -0.823429
H    9.391296  -2.230538  -2.904623
H    9.824270  -1.772034   0.428590

