%chk=mol_4304.chk
# wB97XD/Def2SVP opt pop=full gfinput

C 5 H 11 N 1 O 1

1 2
C    5.665172  -2.286965  -0.918218
C    4.510247   0.034261   0.320271
C    6.330564   2.209676   0.399488
O    8.554450   1.781766   1.909776
C    6.707809   3.844723  -1.892221
C    5.351024   4.896413   0.371652
N    6.607975   6.840166   1.897436
H    4.294289  -3.835199  -0.963080
H    7.334122  -2.936389   0.118524
H    6.246187  -1.880750  -2.862557
H    3.929459  -0.433957   2.252024
H    2.791692   0.559000  -0.711954
H    8.107568   1.602072   3.682831
H    5.597785   3.457008  -3.568823
H    8.604585   4.501007  -2.300004
H    3.324331   5.168420   0.166258
H    8.487516   6.414770   2.038636
H    5.938842   6.821363   3.701690

