%chk=mol_1688.chk
# wB97XD/Def2SVP opt pop=full gfinput

C 6 H 13 N 1

1 2
C    3.944860  -0.951534  -2.451069
N    4.280457   0.221457   0.020598
C    6.102020   2.292578  -0.176198
C    4.742816   4.737487  -1.019318
C    6.147411   6.128268   1.145514
C    8.606512   7.431159   0.425925
C    6.404962   3.519861   2.458760
H    2.548825  -2.470722  -2.305371
H    5.712283  -1.775908  -3.142974
H    3.240729   0.402909  -3.847823
H    4.812112  -1.139958   1.278173
H    7.890249   1.875137  -1.130850
H    2.683090   4.752756  -0.779644
H    5.180722   5.376875  -2.936805
H    4.931108   7.445332   2.187698
H    9.874443   6.175077  -0.620510
H    9.603626   8.077635   2.119309
H    8.227924   9.085312  -0.757364
H    8.209461   3.156958   3.401923
H    4.876589   3.150098   3.811143

