%chk=mol_0159.chk
# wB97XD/Def2SVP opt pop=full gfinput

C 4 H 9 N 1

1 2
C    1.955092   0.033864   0.305966
C    4.776320  -0.231718   0.099022
C    5.876292  -2.519761  -0.001720
C    6.293808   2.168763  -0.067671
N    6.195694   3.584641   2.287400
H    1.431940   0.944995   2.087259
H    0.996509  -1.799548   0.238956
H    1.225431   1.174692  -1.258444
H    4.776661  -4.248256   0.102933
H    7.912227  -2.722358  -0.155959
H    5.583631   3.338674  -1.622349
H    8.276396   1.751757  -0.499058
H    4.408996   4.240470   2.560692
H    7.313788   5.141567   2.126509

