%chk=mol_0287.chk
# wB97XD/Def2SVP opt pop=full gfinput

C 4 H 6 N 2

1 2
C    1.931886   0.047224  -0.326110
C    4.416441  -0.108432   0.070090
C    6.134335  -2.325497   0.283157
N    8.475062  -1.131492   1.183932
N    8.435492   1.444752   0.978406
C    6.119614   2.054151   0.451796
H    0.796803  -1.644062  -0.568071
H    0.968485   1.855881  -0.405384
H    6.436842  -3.195073  -1.568340
H    5.459173  -3.730981   1.637240
H   10.057160  -1.900006   0.396861
H    5.419754   3.998623   0.238899

