%chk=mol_2780.chk
# wB97XD/Def2SVP opt pop=full gfinput

C 6 H 10 O 1

1 2
C    4.653224  -2.134918   4.241263
C    6.078417  -2.349780   1.790799
C    6.613682  -4.606396   0.756722
C    6.813200   0.097000   0.527555
C    8.660936   1.608421   2.129003
C   11.256928   0.509943   2.530457
O    8.057433   3.650082   3.075813
H    5.838895  -1.265663   5.696542
H    4.050174  -3.984185   4.950213
H    2.957969  -0.976724   3.989930
H    6.054513  -6.363331   1.661126
H    7.610891  -4.769536  -1.034096
H    5.123577   1.248636   0.197911
H    7.689447  -0.213841  -1.323848
H   12.120174   0.077895   0.706228
H   11.129296  -1.195724   3.685325
H   12.444886   1.887704   3.511602

