%chk=mol_0762.chk
# wB97XD/Def2SVP opt pop=full gfinput

C 4 H 10 O 2

1 2
C    2.176738  -0.469238   0.463380
C    4.829138   0.244115  -0.421522
C    5.425631  -1.027746  -2.960010
O    8.000005  -0.666506  -3.638970
C    5.086443   3.126325  -0.590237
O    7.601178   3.811785  -1.262016
H    1.762321   0.382367   2.302329
H    1.996477  -2.520422   0.663010
H    0.739884   0.172891  -0.879970
H    6.215801  -0.434996   0.964989
H    4.235613  -0.279906  -4.477857
H    5.100862  -3.067252  -2.843339
H    8.312905   1.158969  -3.553743
H    4.630736   4.027970   1.215547
H    3.814412   3.899337  -2.027223
H    8.673767   3.406193   0.180960

