%chk=mol_5732.chk
# wB97XD/Def2SVP opt pop=full gfinput

C 4 H 5 N 1 O 2

1 2
N    1.924497  -0.022658   0.099022
C    4.667624   0.000000   0.000000
C    5.578509   2.572238   0.000000
C    6.329260   4.692322   0.000000
C    7.315167   7.231112  -0.013587
O    9.863067   7.339753   0.095715
O    5.938786   9.073217  -0.138706
H    1.293971  -1.833091  -0.055690
H    1.223220   0.926495  -1.423323
H    5.304367  -0.993920  -1.699752
H    5.411968  -1.030940   1.631797
H   10.597150   5.648202   0.181036

