%chk=mol_6789.chk
# wB97XD/Def2SVP opt pop=full gfinput

C 6 H 13 N 1

1 2
C    1.680496  -0.205829   0.303358
C    4.542335  -0.029839  -0.054972
C    5.335660  -0.090140  -2.851956
N    4.461908   2.146370  -4.214335
C    5.836381   2.042737   1.597518
C    7.893632   0.098077   2.274833
C    6.003244  -2.002713   1.583931
H    1.172159  -0.319534   2.307337
H    0.921015  -1.890255  -0.629884
H    0.720061   1.452670  -0.474472
H    4.586914  -1.789136  -3.771119
H    7.397408  -0.176500  -3.023694
H    2.539811   2.127661  -4.326868
H    5.093643   2.065093  -6.032308
H    4.723446   2.649415   3.237214
H    6.513206   3.728241   0.613311
H    9.554058   0.172683   1.038688
H    8.529034   0.118108   4.241075
H    6.807663  -3.618939   0.577878
H    4.953671  -2.714289   3.222172

