%chk=mol_1351.chk
# wB97XD/Def2SVP opt pop=full gfinput

C 5 H 12 N 2

1 2
C    1.405200  -0.508034  -0.336296
C    4.252545  -0.397202   0.032220
C    5.285583   2.244654  -0.514119
C    8.147044   2.352237  -0.124401
N    9.079416   4.906145  -0.651578
N   11.606112   5.224904  -0.402096
C   12.362909   7.462396  -1.012383
H    0.704055  -2.413369   0.060282
H    0.889211  -0.025719  -2.281145
H    0.440986   0.808066   0.936511
H    5.154549  -1.779347  -1.219025
H    4.706287  -0.942331   1.978222
H    4.354402   3.618088   0.729907
H    4.824395   2.778200  -2.464392
H    9.077054   0.999627  -1.388590
H    8.614090   1.827233   1.824965
H    8.089672   6.170164   0.425321
H   14.385578   7.933448  -0.878458
H   11.090122   8.971929  -1.687866

