%chk=mol_2166.chk
# wB97XD/Def2SVP opt pop=full gfinput

C 6 H 10 O 1

1 2
C    1.333655   2.033610  -0.821143
C   -0.987344   0.568732  -0.079350
C    1.541450  -0.724672  -0.161515
C    2.974939  -1.687204   2.111750
C    2.721432  -0.488929   4.742249
O    2.491982  -2.955135   5.917658
C    2.068740  -4.092448   3.463585
H    1.544190   2.568667  -2.787251
H    2.052507   3.421954   0.502384
H   -2.343582   0.117182  -1.548668
H   -1.845714   0.980654   1.732652
H    1.858206  -2.028697  -1.715796
H    4.978257  -1.849928   1.578337
H    1.035154   0.652428   5.097328
H    4.394256   0.526912   5.408056
H    3.246890  -5.764081   3.171319
H    0.076099  -4.584589   3.205259

