%chk=mol_6022.chk
# wB97XD/Def2SVP opt pop=full gfinput

C 5 H 7 N 1 O 1

1 2
O    1.922173  -0.194339   0.189521
C    4.209818  -0.026192   0.076137
C    6.145559  -2.155932   0.107034
N    8.605548  -0.686745  -0.072754
C    8.083190   1.361264  -2.100355
C    6.067967   2.254103  -0.140974
C    8.239055   1.586822   1.738321
H    5.917866  -3.387145  -1.534798
H    6.061127  -3.204673   1.883566
H    7.373333   0.640050  -3.905629
H    9.671353   2.642366  -2.470193
H    5.308959   4.157473  -0.221192
H    9.845814   2.894664   1.826307
H    7.682134   1.083153   3.666938

