%chk=mol_3228.chk
# wB97XD/Def2SVP opt pop=full gfinput

C 5 H 10 O 2

1 2
C    1.902047  -0.330154   1.395714
C    4.394067  -0.705775   0.077592
O    4.792591  -2.588868  -1.232290
C    6.318715   1.397150   0.360182
C    9.036084   0.483033   0.019483
C    9.849385  -1.436211   2.009988
O    9.490790  -0.405535   4.464346
H    2.214816  -0.184551   3.433481
H    0.667980  -1.948553   1.030090
H    0.992427   1.381787   0.687841
H    6.089132   2.269996   2.222998
H    5.878674   2.834910  -1.063160
H   10.276897   2.138792   0.145150
H    9.293408  -0.336409  -1.865632
H   11.854196  -1.888951   1.774680
H    8.764909  -3.190103   1.867031
H   10.103780  -1.661542   5.660183

