%chk=mol_1073.chk
# wB97XD/Def2SVP opt pop=full gfinput

C 4 H 9 N 1 O 1

1 2
N    1.987293  -0.175102  -0.104974
C    4.741833  -0.098852  -0.072641
C    6.153364  -1.214584  -2.270714
C    6.089945   1.608894  -1.904447
C    8.405124   3.002435  -1.111480
O    9.894908   3.542084  -3.277239
H    1.243326   1.215434   1.002311
H    1.334033  -1.840007   0.612366
H    5.589016  -0.349694   1.784034
H    5.072422  -1.991922  -3.828491
H    7.886980  -2.228101  -1.870848
H    4.951234   2.714913  -3.201744
H    9.559048   1.919962   0.221835
H    7.893008   4.793933  -0.216336
H   10.123433   1.955602  -4.175142

