%chk=mol_4674.chk
# wB97XD/Def2SVP opt pop=full gfinput

C 5 H 13 N 1 O 1

1 2
C    2.383417   1.432167   0.447487
C    5.034193   0.883560  -0.520903
N    6.609487   3.137815  -0.260499
C    9.172674   2.677081  -1.187145
C   10.839847   5.012537  -0.863284
C    9.922441   7.275918  -2.383889
O   11.676806   9.292955  -2.074863
H    1.188959  -0.244172   0.242357
H    1.504959   2.974788  -0.615295
H    2.409552   1.954638   2.449123
H    4.917408   0.313128  -2.510123
H    5.837194  -0.695211   0.556109
H    6.680957   3.656167   1.595590
H    9.122313   2.150338  -3.190538
H   10.032216   1.106642  -0.143789
H   12.776855   4.548798  -1.443524
H   10.976115   5.533798   1.140563
H    8.070000   7.924397  -1.731235
H    9.806545   6.816601  -4.397336
H   10.994465  10.731055  -2.993459

