%chk=mol_7103.chk
# wB97XD/Def2SVP opt pop=full gfinput

C 6 H 11 N 1

1 2
C    7.538080  -2.899785  -0.505048
C    5.653437  -0.913456   0.266565
C    3.322592  -1.568643   1.028861
C    6.367432   1.743442   0.184003
C    8.626487   2.663890  -0.516046
C    9.257919   5.414859  -0.579844
N   11.421486   5.898289   1.044905
H    9.215628  -2.830111   0.705624
H    8.120096  -2.632936  -2.473198
H    6.753163  -4.810128  -0.353020
H    2.738875  -3.534903   1.109439
H    1.924422  -0.178730   1.597404
H    4.909603   3.081860   0.754813
H   10.139666   1.406618  -1.106832
H    7.659835   6.584448   0.023055
H    9.728423   5.954848  -2.521613
H   10.934579   5.480848   2.861045
H   11.815551   7.781250   1.020566

