%chk=mol_0127.chk
# wB97XD/Def2SVP opt pop=full gfinput

C 5 H 8

1 2
C    1.934116  -0.044654   0.426379
C    4.745386  -0.196475   0.025474
C    5.812419  -2.313611  -0.884089
C    6.321285   1.973101   0.629884
C    5.521496   4.193397   1.544568
H    1.110044   1.467165  -0.722329
H    1.495454   0.312523   2.417432
H    0.981788  -1.805142  -0.104143
H    4.683989  -3.962245  -1.351853
H    7.834842  -2.474181  -1.191397
H    8.343783   1.759203   0.302961
H    3.550115   4.592715   1.933417
H    6.865110   5.694727   1.931754

