%chk=mol_0064.chk
# wB97XD/Def2SVP opt pop=full gfinput

C 4 H 6 O 1

1 2
C    2.299419  -0.885771  -0.792457
C    4.730155  -0.669398  -0.156828
O    5.980227   1.594891  -0.297840
C    8.469375   1.713774   0.409749
C    9.785248   3.861202   0.280284
H    1.334317  -2.688664  -0.673782
H    1.235125   0.741699  -1.442617
H    5.836929  -2.257051   0.495581
H    9.288420  -0.033958   1.077767
H    8.912610   5.588242  -0.397485
H   11.752415   3.928797   0.847901

