%chk=mol_4361.chk
# wB97XD/Def2SVP opt pop=full gfinput

C 5 H 9 N 1 O 1

1 2
C    1.651810   0.066972   0.229715
C    4.435660  -0.464173  -0.057788
C    5.086047  -3.232698  -0.079104
C    6.085334   1.455826  -0.266659
N    8.640716   1.170723  -0.530786
C   10.336083   3.112322  -0.743645
O   12.614111   2.785305  -0.976421
H    1.234350   2.093854   0.242943
H    0.950513  -0.729510   2.005888
H    0.596171  -0.780948  -1.334808
H    4.100082  -4.180131  -1.632648
H    4.495205  -4.112422   1.698467
H    7.102063  -3.608848  -0.312428
H    5.410720   3.400109  -0.229469
H    9.428902  -0.570546  -0.581752
H    9.473254   5.007585  -0.687426

