%chk=mol_5061.chk
# wB97XD/Def2SVP opt pop=full gfinput

C 5 H 13 N 1 O 1

1 2
C    3.916703  -2.656142   2.393773
N    6.409252  -2.444852   1.204946
C    6.491587  -4.030899  -1.062253
C    6.961203   0.221778   0.628580
C    9.647279   0.727526  -0.326034
C   11.678658  -0.168639   1.499233
O   14.089345   0.513117   0.509357
H    3.851130  -1.564164   4.152824
H    3.518028  -4.622761   2.908799
H    2.398611  -1.986820   1.152374
H    6.003188  -5.990110  -0.596851
H    8.399209  -4.098495  -1.860889
H    5.185692  -3.369779  -2.528000
H    6.704427   1.346430   2.355506
H    5.606081   0.960340  -0.759897
H    9.872931   2.766578  -0.633531
H    9.950637  -0.127953  -2.187698
H   11.636272  -2.222639   1.733597
H   11.460735   0.728376   3.351146
H   15.345654  -0.168564   1.665094

