%chk=mol_2400.chk
# wB97XD/Def2SVP opt pop=full gfinput

C 6 H 6 O 1

1 2
C    1.972836   0.031256  -0.366664
C    4.463571  -0.027288   0.042216
C    6.067419  -2.369887   0.199857
C    8.597706  -1.177451   0.727979
O   10.578762  -2.323872   1.046493
C    8.453256   1.597518   0.822182
C    6.031987   2.168706   0.414247
H    0.901494  -1.700338  -0.625934
H    0.929537   1.796204  -0.451437
H    6.129062  -3.387126  -1.596290
H    5.513427  -3.584414   1.775473
H   10.036487   2.822098   1.160273
H    5.304707   4.078671   0.370160

