%chk=mol_5832.chk
# wB97XD/Def2SVP opt pop=full gfinput

C 4 H 4 N 2 O 1

1 2
N    1.853254  -0.067803  -0.130523
C    4.439099  -0.207152  -0.219284
N    5.607857  -2.354240  -0.230055
C    5.978375   2.255785  -0.249312
O    4.875002   4.204225   0.362374
C    8.611670   2.335399  -0.978084
C   10.797347   2.413879  -1.582494
H    1.209784   1.675979   0.386166
H    0.968504  -1.481791   0.804494
H    4.304626  -3.781682  -0.258874
H   12.737473   2.477015  -2.116550

