%chk=mol_6230.chk
# wB97XD/Def2SVP opt pop=full gfinput

C 4 H 8 N 2 O 1

1 2
O    6.010520  -1.294047   0.086153
C    3.892401   0.386600  -0.025965
C    4.848716   3.092896  -0.095507
C    3.170393   4.988726  -0.273557
N    7.450075   3.350182   0.030821
C    8.961781   5.418525   0.042972
N   11.391723   5.413366   0.155676
H    5.307900  -2.993496   0.129257
H    2.728160   0.068351   1.654531
H    2.809796  -0.052893  -1.733465
H    1.153545   4.623423  -0.365322
H    3.743661   6.954173  -0.335445
H    8.299998   1.620799   0.120886
H    7.955861   7.238823  -0.050909
H   12.029656   3.590877   0.232644

