%chk=mol_7159.chk
# wB97XD/Def2SVP opt pop=full gfinput

C 6 H 13 N 1

1 2
C    1.556586  -0.357215   0.138101
C    4.385147   0.182604   0.026097
C    5.183027   2.934386  -0.114291
C    3.572168   4.896129  -0.211612
C    8.018221   3.399410  -0.063287
C    9.355449   2.526507  -2.484782
N   12.043773   3.168466  -2.429073
H    1.231799  -2.398440   0.236329
H    0.587289   0.350525  -1.547516
H    0.691300   0.499511   1.810603
H    5.146235  -0.815039  -1.621820
H    5.262188  -0.664503   1.702757
H    1.535743   4.656588  -0.220115
H    4.248066   6.834478  -0.278961
H    8.828914   2.431756   1.582476
H    8.394881   5.420169   0.224764
H    8.483000   3.405986  -4.144717
H    9.185297   0.475757  -2.702290
H   12.242742   5.083401  -2.355865
H   12.859492   2.609183  -4.082243

