%chk=mol_2175.chk
# wB97XD/Def2SVP opt pop=full gfinput

C 6 H 10 O 1

1 2
C   -1.773224   0.063457  -2.196126
C   -1.156664   1.996515  -0.058959
C   -2.254368  -0.048623   1.753590
C   -1.046568  -1.937839  -0.148495
O    1.649939  -2.274115   0.238332
C    3.135660  -0.061189  -0.232663
C    1.682763   2.369131   0.398316
H   -3.760895   0.015193  -2.781356
H   -0.592845   0.142580  -3.888319
H   -2.216233   3.770495  -0.108546
H   -1.497929  -0.077630   3.676122
H   -4.322730  -0.117598   1.848757
H   -2.001296  -3.762766  -0.303887
H    3.664141  -0.080559  -2.234526
H    4.881654  -0.178863   0.869614
H    2.417999   3.931745  -0.744023
H    1.993283   2.879225   2.383266

