%chk=mol_1873.chk
# wB97XD/Def2SVP opt pop=full gfinput

C 6 H 9 N 1

1 2
N    1.704703  -0.552254  -1.126296
C    3.922240  -0.328586   0.400754
C    4.834430  -2.864409   1.622746
C    7.306664  -1.132513   1.740740
C    6.469307  -0.510075  -1.094208
C    6.514188   1.149180   3.241334
C    4.211538   1.670423   2.307374
H    0.103274  -0.847769  -0.100874
H    1.363381   1.006317  -2.202287
H    4.939952  -4.548363   0.420407
H    3.991328  -3.390584   3.437960
H    9.143497  -1.975917   2.115473
H    7.209097   1.242835  -1.909001
H    6.685039  -2.035462  -2.479548
H    7.560379   2.108613   4.702149
H    2.933063   3.165197   2.832983

