%chk=mol_4608.chk
# wB97XD/Def2SVP opt pop=full gfinput

C 4 H 9 N 1 O 2

1 2
C    1.343047  -1.916107  -0.574779
C    3.853492  -0.611345  -0.028799
C    5.918320  -1.606777  -1.771675
O    3.614082   2.056154  -0.506295
C    2.662152   3.449544   1.409207
N    2.519591   5.899366   0.705926
O    2.003129   2.682050   3.480157
H   -0.145263  -1.204152   0.673782
H    1.489803  -3.961679  -0.310388
H    0.720231  -1.539239  -2.513033
H    4.432050  -0.950627   1.932736
H    5.456792  -1.242684  -3.757040
H    6.202440  -3.639216  -1.517582
H    7.708061  -0.638727  -1.391292
H    3.065911   6.417397  -1.042808
H    1.819409   7.175838   1.934834

