%chk=mol_3839.chk
# wB97XD/Def2SVP opt pop=full gfinput

C 4 H 8 N 2 O 1

1 2
C    3.156447  -0.253922  -0.292530
C    1.549727  -2.239590   1.038348
N   -0.788658  -2.698283  -0.306041
C   -2.635677  -0.886414  -0.531844
N   -2.628836   1.528108  -0.138385
O   -0.319912   2.474710   0.802453
C    1.682159   2.124940  -0.971111
H    4.021545  -1.028408  -2.008779
H    4.721575   0.250861   0.969656
H    2.623960  -4.006654   1.149048
H    1.140544  -1.676697   2.990548
H   -1.425893  -4.504484  -0.204298
H   -4.413455  -1.719953  -1.234634
H    2.924181   3.777808  -0.880253
H    0.950513   2.033345  -2.909328

