%chk=mol_6527.chk
# wB97XD/Def2SVP opt pop=full gfinput

C 4 H 6 N 2 S 1

1 2
C    1.778818  -0.335351  -0.019407
C    4.629262   0.026022   0.048509
C    5.359074   2.746282   0.019993
C    5.853370   4.263260   2.093061
S    6.593859   7.215995   0.977215
N    6.236550   6.355395  -2.041093
N    5.585067   3.957427  -2.300288
H    1.309467  -2.349685  -0.005046
H    0.960019   0.505180  -1.723922
H    0.874603   0.548172   1.620005
H    5.480168  -0.929934  -1.580832
H    5.396756  -0.888493   1.742781
H    5.815500   3.813089   4.081336

