%chk=mol_1053.chk
# wB97XD/Def2SVP opt pop=full gfinput

C 4 H 5 N 1 O 1

1 2
C    1.823510  -0.212953   0.009751
N    4.516899   0.180185  -0.004195
C    5.713871   2.470930   0.001814
O    8.024042   2.626512  -0.004630
C    4.204886   4.747351   0.016535
C    2.960445   6.648189   0.028799
H    1.453124  -2.243710  -0.010526
H    0.990878   0.668528  -1.662865
H    1.015369   0.630450   1.713774
H    5.698658  -1.323243  -0.009127
H    1.878747   8.344501   0.039609

