%chk=mol_4907.chk
# wB97XD/Def2SVP opt pop=full gfinput

C 4 H 10 N 2 O 1

1 2
C    8.203660  -3.308117   2.632729
C    9.192120  -0.783216   1.705629
O    7.119902   0.966217   1.647199
C    7.684685   3.335442   0.865287
N    9.910272   4.035378   0.153257
N   10.045690   6.488280  -0.574439
C   12.552865   7.354247  -1.322430
H    9.724266  -4.707081   2.720393
H    6.718052  -4.015252   1.377554
H    7.362902  -3.116895   4.513630
H    9.978415  -1.000950  -0.197004
H   10.653898  -0.091935   2.997710
H    5.986917   4.543261   0.922715
H    8.801229   6.884480  -2.000181
H   13.906665   7.104671   0.221929
H   12.488689   9.366182  -1.793482
H   13.229217   6.316447  -2.979285

