%chk=mol_1826.chk
# wB97XD/Def2SVP opt pop=full gfinput

C 5 H 10 N 2

1 2
C    1.944982  -0.475644  -0.091406
N    4.711333  -0.710877  -0.046374
C    5.359207  -3.414735   0.012208
N    5.889842   0.648516  -1.887458
C    8.027273   1.590318  -1.156456
C    9.600055   3.114892  -2.885347
C   11.815191   4.048587  -2.107800
H    1.402007   1.520247   0.004649
H    1.091468  -1.410832   1.546646
H    1.136859  -1.279401  -1.820449
H    4.494884  -4.348959   1.645177
H    7.406838  -3.660607   0.196739
H    4.749959  -4.380763  -1.715172
H    8.774811   1.306708   0.774542
H    8.873663   3.425091  -4.774790
H   12.535838   3.732530  -0.213615
H   12.969379   5.168779  -3.381192

