%chk=mol_6158.chk
# wB97XD/Def2SVP opt pop=full gfinput

C 6 H 13 N 1

1 2
C    1.872095  -0.021864   0.219492
C    4.730362   0.008466   0.037568
C    6.127607   2.017358   1.655079
C    8.104091  -0.019219   2.371568
C    9.066604  -0.067010   5.058400
N   10.170846   0.052081   0.519448
C    6.165061  -2.053622   1.552164
H    1.099669  -1.666852  -0.768552
H    1.071399   1.675299  -0.650784
H    1.231346  -0.096452   2.185109
H    5.320637   0.065139  -1.953164
H    5.018168   2.693748   3.272099
H    6.810120   3.674610   0.621361
H    7.502836  -0.108810   6.413939
H   10.207431   1.609404   5.477239
H   10.235777  -1.739644   5.408207
H    9.620935   0.133434  -1.324263
H   11.375566  -1.445981   0.644378
H    6.877885  -3.643146   0.436016
H    5.070589  -2.831339   3.133298

