%chk=mol_1685.chk
# wB97XD/Def2SVP opt pop=full gfinput

C 6 H 9 N 1

1 2
C    5.466467  -2.242254  -0.873337
N    4.436529   0.090896   0.160665
C    6.259944   2.151000   0.088382
C    5.309904   4.384921   1.573915
C    5.152678   6.432344   0.081523
C    5.917054   5.756730  -2.441205
C    6.542874   3.301389  -2.495346
H    4.046357  -3.739107  -0.725145
H    7.143769  -2.860819   0.168601
H    5.944870  -2.052091  -2.876088
H    3.930404  -0.216260   1.989995
H    8.099801   1.569777   0.845841
H    4.846694   4.342988   3.558770
H    4.529995   8.292345   0.638085
H    5.935497   7.044426  -4.022225
H    7.169961   2.288477  -4.149120

