%chk=mol_1999.chk
# wB97XD/Def2SVP opt pop=full gfinput

C 4 H 5 N 3

1 2
N    1.889726   0.000000   0.000000
C    4.064820   0.000000   0.000000
C    6.793584   0.000000   0.000000
C    7.877285  -2.268219  -1.480336
N    8.746692  -1.272806  -3.983769
C    8.646158   1.158856  -3.694736
N    7.857009   2.102623  -1.439253
H    7.520902   0.016365   1.936667
H    6.504154  -3.791698  -1.763209
H    9.527470  -3.053155  -0.502799
H    9.114584   2.549864  -5.170669
H    6.858856   3.739900  -1.477350

