%chk=mol_0732.chk
# wB97XD/Def2SVP opt pop=full gfinput

C 5 H 6 O 1

1 2
C    4.185082  -2.665572   0.896467
C    6.481836  -1.625637   0.689599
C    6.773931   1.166528   0.535889
O    4.971322   2.617233   0.589330
C    9.433928   2.047424   0.312410
C    9.955455   4.518826   0.166069
H    3.951606  -4.698747   1.010455
H    2.486105  -1.511025   0.956901
H    8.160895  -2.797929   0.631660
H   10.932198   0.656226   0.271232
H    8.465917   5.934590   0.205961
H   11.887833   5.181648   0.003024

