%chk=mol_2309.chk
# wB97XD/Def2SVP opt pop=full gfinput

C 6 H 8 O 1

1 2
C    1.849815   0.078613   0.126782
C    4.635498  -0.057126  -0.036736
C    6.193672  -2.042851  -0.105447
C    8.935533  -1.381050  -0.259629
C    8.995625   1.492184  -0.470920
C    6.266445   2.199755  -0.183549
O    5.457964   4.359882  -0.110870
H    1.001819  -1.808827   0.079576
H    1.079714   1.157741  -1.460380
H    1.269537   0.996169   1.885777
H    5.552904  -3.985338  -0.032447
H    9.929963  -2.022234   1.437704
H    9.827124  -2.267331  -1.902538
H    9.680708   2.098068  -2.323891
H   10.130671   2.342750   1.031677

