%chk=mol_2192.chk
# wB97XD/Def2SVP opt pop=full gfinput

C 6 H 8 O 1

1 2
C   -0.191354   2.622071   1.066429
C   -2.764046   1.398813   0.482523
C   -2.921422  -0.944353  -0.547454
C   -0.551479  -2.583161  -0.941745
C    1.504959  -1.529714   0.659666
O    3.823747  -0.332195   0.221268
C    1.776191   1.231799  -0.382386
H    0.157679   2.624603   3.106842
H   -0.238899   4.591940   0.431954
H   -4.454878   2.508479   0.832046
H   -4.741890  -1.759184  -1.031734
H   -0.974400  -4.512817  -0.323672
H   -0.054519  -2.658108  -2.949617
H    1.104677  -1.878388   2.643425
H    1.589486   1.629700  -2.388274

