%chk=mol_5507.chk
# wB97XD/Def2SVP opt pop=full gfinput

C 5 H 9 N 1 O 1

1 2
N    1.859528  -0.035300   0.196872
C    4.631681  -0.048849  -0.062928
C    5.528054  -2.361742  -1.603225
C    6.362821  -1.280800  -4.078067
C    6.433024   1.241815  -4.032997
C    5.650111   2.286077  -1.533059
O    7.797256   3.339978  -0.302356
H    1.331860   1.518527   1.207648
H    1.304818  -1.566696   1.221821
H    5.437120  -0.124798   1.844996
H    4.034622  -3.770476  -1.867446
H    7.124948  -3.290883  -0.665543
H    6.856172  -2.429262  -5.693329
H    6.983445   2.423328  -5.603718
H    4.223141   3.770287  -1.730252
H    9.221240   2.234733  -0.660138

