%chk=mol_2464.chk
# wB97XD/Def2SVP opt pop=full gfinput

C 5 H 8 O 2

1 2
C    1.949574   0.127689   0.404760
C    4.732158  -0.121490  -0.250615
C    5.250679  -0.141692  -3.073299
O    6.215971   1.819674   1.005901
C    7.706077   0.049397   2.471856
C    6.190743  -2.093571   1.283748
O    6.165421  -4.376625   1.472815
H    1.658953   0.227674   2.452411
H    0.876946  -1.493772  -0.305172
H    1.140884   1.842010  -0.427097
H    7.281096  -0.221854  -3.469273
H    4.503407   1.563654  -3.977779
H    4.367800  -1.782692  -3.973433
H    9.701324   0.094619   1.952711
H    7.431197   0.290281   4.500931

