%chk=mol_6345.chk
# wB97XD/Def2SVP opt pop=full gfinput

C 4 H 6 N 2 O 1

1 2
O    2.040016   0.167789  -0.676087
N    4.545018   0.001077   0.157735
C    5.639945   2.188020   0.150725
N    8.083908   2.528907   0.935036
C    8.627847   5.182687   1.236070
C    6.297701   6.333909   0.098568
C    4.526102   4.646988  -0.566786
H    1.495756  -1.590507  -0.610400
H    8.766497   1.255307   2.183541
H   10.327883   5.715061   0.192072
H    8.816990   5.697883   3.227955
H    6.083614   8.351323  -0.135493
H    2.685131   4.929899  -1.373151

