%chk=mol_5288.chk
# wB97XD/Def2SVP opt pop=full gfinput

C 4 H 9 N 1 O 2

1 2
C    4.149744  -1.573688  -1.998688
O    3.561208   0.898281  -1.129357
C    5.775608   2.261190  -0.274691
C    6.690991   4.359938  -1.976351
N    5.436440   4.841535  -4.414948
C    5.330464   4.977425   0.447053
O    6.890622   5.955547   2.445438
H    2.414201  -2.455076  -2.689704
H    4.905294  -2.714195  -0.448602
H    5.515733  -1.485192  -3.548433
H    7.166597   1.252246   0.847297
H    8.716683   4.704417  -1.996647
H    3.613270   4.202940  -4.305609
H    6.247000   3.759289  -5.788949
H    3.402282   5.665531   0.332535
H    7.020049   7.785086   2.310625

