%chk=mol_2045.chk
# wB97XD/Def2SVP opt pop=full gfinput

C 6 H 9 N 1

1 2
N    1.944849   0.015307   0.500324
C    4.667624   0.000000   0.000000
C    5.203588  -1.341838  -2.543477
C    7.981390  -1.666247  -3.101740
C    9.135522  -3.902776  -3.384008
C    5.578509   2.572238   0.000000
C    6.329260   4.692322   0.000000
H    1.636371   0.879479   2.192857
H    1.329196  -1.796109   0.694871
H    5.590849  -1.060665   1.523327
H    4.359712  -0.271157  -4.108264
H    4.281080  -3.200913  -2.538393
H    9.089337   0.053045  -3.323272
H    8.121665  -5.676813  -3.213574
H   11.140805  -3.996865  -3.808724
H    6.987300   6.595031  -0.006992

