%chk=mol_3251.chk
# wB97XD/Def2SVP opt pop=full gfinput

C 5 H 12 O 2

1 2
C    1.920453  -0.444974   0.272744
C    4.785826  -0.645341   0.465345
O    5.670237  -2.438862  -1.346241
C    6.065888   1.917071   0.021486
C    8.967884   1.853991   0.125988
C   10.014642   0.973625   2.655613
O    9.943966   0.277903  -1.824720
H    1.163183   0.852569   1.694347
H    1.048647  -2.303236   0.542692
H    1.341668   0.216695  -1.601940
H    5.270068  -1.372792   2.338706
H    4.992713  -1.950330  -2.990510
H    5.359622   3.293245   1.400400
H    5.529660   2.591986  -1.866747
H    9.669842   3.765808  -0.244153
H    9.603834  -1.025063   3.000904
H    9.256993   2.097483   4.218020
H   12.078676   1.146289   2.667235
H    9.084934  -1.356313  -1.666644

