%chk=mol_4138.chk
# wB97XD/Def2SVP opt pop=full gfinput

C 5 H 8 N 2

1 2
C    1.395298  -0.197741   0.055010
C    4.030616   0.835335  -0.080446
C    1.803611   2.565965  -0.476079
C    1.180134   4.554731   1.494074
N    0.370273   6.797742  -0.029612
C    0.494881   6.053076  -2.363840
N    1.350096   3.694528  -2.935916
H    0.686991  -0.747065   1.900290
H    0.768873  -1.409773  -1.468412
H    5.174278   0.361202  -1.711978
H    5.098991   1.005467   1.660465
H    2.819056   5.057625   2.646807
H   -0.386128   3.964778   2.705804
H   -0.072906   7.228788  -3.987322
H    0.416420   2.762364  -4.320367

