%chk=mol_0581.chk
# wB97XD/Def2SVP opt pop=full gfinput

C 5 H 6 O 1

1 2
C   -2.645994   0.106788  -0.729699
C   -0.782290  -1.419449   1.032433
O   -1.072476   0.874357   2.751007
C   -0.655754   2.131743   0.192658
C    1.847547   1.249959  -0.725466
C    1.760544  -1.213129  -0.142901
H   -2.649169  -0.368875  -2.740008
H   -4.579317   0.339886  -0.034601
H   -1.389402  -3.190236   1.889443
H   -1.128563   4.134192   0.156469
H    3.338825   2.330599  -1.589827
H    3.160699  -2.664212  -0.407803

