%chk=mol_6616.chk
# wB97XD/Def2SVP opt pop=full gfinput

C 4 H 5 N 1 O 1 S 1

1 2
C    5.714929  -2.336514   1.044168
O    4.476648  -0.014041   0.506447
C    5.892884   2.080418   0.319647
C    5.006527   4.489498  -0.191127
N    6.779185   6.404414  -0.305701
C    9.022894   5.437063   0.121490
S    9.128549   2.251665   0.671401
H    4.272803  -3.817757   1.124500
H    6.655105  -2.275457   2.886897
H    7.048490  -2.839767  -0.456388
H    3.034503   4.942012  -0.499474
H   10.718810   6.579686   0.128199

