%chk=mol_0707.chk
# wB97XD/Def2SVP opt pop=full gfinput

C 5 H 10 O 1

1 2
C    3.801203  -1.126863   2.036218
C    5.420358  -0.323918  -0.198176
C    5.912179   2.471138  -0.169603
C    8.228170   3.496296  -0.032768
C    8.748468   6.269714  -0.022110
O   10.011165   6.880644   2.260831
H    3.451812  -3.164762   1.969132
H    1.968547  -0.165143   2.018095
H    4.737373  -0.696459   3.831382
H    4.449341  -0.810069  -1.961498
H    7.195982  -1.391103  -0.170888
H    4.260350   3.691523  -0.292114
H    9.883664   2.280616   0.067803
H    7.021958   7.402208  -0.146057
H    9.975108   6.774555  -1.607552
H    8.978864   6.213986   3.627254

