%chk=mol_4232.chk
# wB97XD/Def2SVP opt pop=full gfinput

C 5 H 7 N 1 O 1

1 2
C    1.770484  -0.129125   0.027325
C    4.639334   0.046317   0.007521
C    5.549048   2.707864   0.001247
N    5.953488   3.930233   2.180536
O    6.773478   6.321852   1.507491
C    6.852449   6.505420  -1.044546
C    6.095482   4.265944  -2.098749
H    1.172651  -2.109350   0.023603
H    0.953083   0.792797  -1.635766
H    0.977140   0.779210   1.709692
H    5.369317  -0.934829  -1.665812
H    5.398758  -0.954293   1.655646
H    7.470711   8.304477  -1.783372
H    5.954565   3.818022  -4.083226

