%chk=mol_2413.chk
# wB97XD/Def2SVP opt pop=full gfinput

C 6 H 8 O 1

1 2
C    1.858621   0.034733  -0.247006
C    4.725884  -0.030292   0.047338
C    5.641399  -2.489450   1.274583
C    6.660623  -1.596743   3.766753
O    7.437320  -2.960313   5.459456
C    6.688175   1.172915   3.937566
C    5.619441   2.009818   1.808411
H    1.221500  -1.487914  -1.493810
H    1.242174   1.830804  -1.068924
H    0.899623  -0.190314   1.574047
H    5.606345   0.201558  -1.814402
H    7.181734  -3.336841   0.185911
H    4.129316  -3.866361   1.561764
H    7.450661   2.217272   5.502467
H    5.382885   3.996487   1.383034

