%chk=mol_0548.chk
# wB97XD/Def2SVP opt pop=full gfinput

C 6 H 10

1 2
C    1.688640   0.088723  -0.662066
C    3.637647   0.521980   0.890647
C    5.513031   2.508498   0.270382
C    4.592167   5.279876   0.546565
C    7.253808   5.915448   1.551352
C    7.445634   3.129046   2.387877
H    0.311786  -1.367916  -0.229847
H    1.414668   1.167208  -2.386724
H    3.872635  -0.590653   2.599262
H    6.444835   2.148108  -1.550898
H    3.092046   5.573331   1.945549
H    4.062155   6.227914  -1.211277
H    8.604112   6.438032   0.069580
H    7.333725   7.318512   3.064531
H    9.312910   2.269675   2.179213
H    6.772627   2.806281   4.320802

