%chk=mol_3092.chk
# wB97XD/Def2SVP opt pop=full gfinput

C 6 H 12 O 1

1 2
C   -1.528089   1.608762  -2.541549
C    0.007294   0.680018  -0.303301
C    2.820775   1.167983  -0.662066
O    4.129543   0.215334   1.492071
C    6.786158   0.596265   1.285033
C    7.979236  -0.461018   3.617862
C    9.490848   0.837621   5.179739
H   -3.542197   1.255874  -2.227345
H   -0.969732   0.633209  -4.278888
H   -1.269594   3.641937  -2.827446
H   -0.317814  -1.346335  -0.020239
H   -0.642828   1.609688   1.430088
H    3.176327   3.200894  -0.844783
H    3.503344   0.207775  -2.366523
H    7.191957   2.616477   1.074838
H    7.507920  -0.415494  -0.371086
H    7.551440  -2.424859   4.039082
H    9.955947   2.806206   4.846373
H   10.280205  -0.056560   6.850314

