%chk=mol_4387.chk
# wB97XD/Def2SVP opt pop=full gfinput

C 4 H 10 N 2 O 1

1 2
C    3.606467  -0.496204   2.846589
C    3.965704   0.552480   0.202409
C    5.515506   2.961598   0.280927
C    4.100800   5.436307   0.707003
N    3.422275   6.504059  -1.756935
N    7.950512   2.772474  -0.042198
O    9.141720   5.129510   0.038777
H    2.500013  -2.242009   2.785192
H    2.616175   0.855007   4.060473
H    5.429485  -0.914741   3.731982
H    2.132575   0.950494  -0.670418
H    4.936645  -0.840172  -0.982431
H    5.261734   6.766901   1.780859
H    2.384778   5.069493   1.800096
H    5.063030   6.758870  -2.747114
H    2.697905   8.267722  -1.490408
H   10.912488   4.679548  -0.214956

