%chk=mol_2918.chk
# wB97XD/Def2SVP opt pop=full gfinput

C 6 H 10 O 1

1 2
C    3.531085  -5.818882   1.489803
C    2.476354  -3.194639   1.701037
C    0.605053  -2.633201   3.325275
C    3.655222  -1.232631   0.003477
O    2.973333  -1.802213  -2.545253
C    3.852093  -0.233079  -4.396599
C    5.371792   1.778005  -4.197138
H    3.340620  -6.533728  -0.441931
H    2.562147  -7.150403   2.747322
H    5.538485  -5.826838   1.999028
H   -0.228770  -4.061135   4.536325
H   -0.162139  -0.737220   3.463490
H    5.715684  -1.288188   0.225255
H    2.980703   0.663294   0.498113
H    3.116291  -0.854062  -6.207202
H    6.140193   2.433174  -2.416298
H    5.893243   2.832189  -5.877785

