%chk=mol_6813.chk
# wB97XD/Def2SVP opt pop=full gfinput

C 6 H 9 N 1

1 2
C    1.769464   0.140917  -0.018255
C    4.577918   0.048434  -0.003250
C    6.187700   2.103983   0.016233
N    8.622707   1.238961   0.024888
C    8.613409  -1.345088   0.011130
C    6.134146  -2.165513  -0.006538
C    5.296260  -4.848036  -0.025870
H    1.080772   2.091946  -0.004157
H    1.006695  -0.818251   1.648314
H    1.025989  -0.787581  -1.710712
H    5.799343   4.111062   0.024566
H   10.186512   2.338631   0.039061
H   10.370382  -2.390617   0.014910
H    3.235173  -5.008776  -0.016535
H    6.020176  -5.839178   1.639791
H    6.003263  -5.809056  -1.716230

