%chk=mol_1100.chk
# wB97XD/Def2SVP opt pop=full gfinput

C 4 H 7 N 1 O 1

1 2
N    1.897247   0.552669   0.173628
C    4.315643   0.212537  -0.627351
O    5.017979  -1.684181  -1.740551
C    6.084729   2.282902   0.011433
C    7.438245   3.670113  -2.084973
C    5.465674   5.012329  -0.555145
H    1.344181   2.101017   1.137275
H    0.631717  -0.829514  -0.193073
H    7.204298   1.897814   1.687261
H    6.989398   3.164252  -4.020525
H    9.403920   4.161498  -1.785923
H    6.093006   6.432155   0.781553
H    3.699498   5.461838  -1.491259

