%chk=mol_2763.chk
# wB97XD/Def2SVP opt pop=full gfinput

C 6 H 12 O 1

1 2
C    1.667305   1.814005  -1.975123
C    4.472547   1.478200  -2.023746
C    6.033064   2.404242  -0.245740
C    8.875458   2.172316  -0.122681
C    9.648848   0.845104   2.327387
C   10.122658   0.862263  -2.382321
O    9.837649   4.692625  -0.011017
H    1.047872   2.797947  -3.685400
H    1.034814   2.907325  -0.337524
H    0.739393  -0.033221  -1.915086
H    5.209125   0.408332  -3.614290
H    5.205459   3.461071   1.317819
H    8.915198   1.845601   3.987171
H   11.710085   0.822806   2.534652
H    8.965106  -1.107965   2.388727
H    9.688607   1.845847  -4.154072
H    9.526260  -1.112387  -2.558028
H   12.186806   0.899075  -2.200945
H    9.181423   5.577980  -1.482131

