%chk=mol_1260.chk
# wB97XD/Def2SVP opt pop=full gfinput

C 6 H 9 N 1

1 2
C    1.442560   0.150139   0.141030
C    4.237730   0.066518   0.548115
C    5.848740   1.807032  -0.369801
C    8.682592   1.933549  -0.084849
N    9.737456  -0.045731   1.503391
C    9.853183   1.792708  -2.603646
C   10.818814   1.677226  -4.655454
H    0.824544  -1.559137  -0.845123
H    0.860676   1.787757  -0.980409
H    0.469446   0.237992   1.963501
H    4.923436  -1.528618   1.643533
H    5.060914   3.368059  -1.460399
H    9.152020   3.758514   0.775638
H    9.354541  -1.743726   0.687369
H    8.838665  -0.015855   3.199798
H   11.685424   1.566621  -6.469345

