%chk=mol_2099.chk
# wB97XD/Def2SVP opt pop=full gfinput

C 5 H 12 N 2

1 2
N    0.741245   1.884756   0.387734
C    3.438867   1.302002   0.549627
C    5.073782   3.562776  -0.274955
N    7.769420   2.925050  -0.122813
C    9.328010   5.077240  -0.867876
C   12.119229   4.565654  -0.717623
C   13.271604   2.468096   0.115708
H   -0.262634   0.362809   1.010928
H    0.329436   3.322328   1.603319
H    3.835690  -0.332138  -0.658588
H    3.899922   0.766586   2.497084
H    4.664505   5.177982   0.956938
H    4.579959   4.097040  -2.216025
H    8.131642   1.473344  -1.336471
H    8.921151   6.700213   0.354550
H    8.884642   5.627831  -2.816316
H   13.308056   6.117365  -1.362247
H   12.217760   0.857785   0.822106
H   15.319008   2.335607   0.137251

