%chk=mol_7090.chk
# wB97XD/Def2SVP opt pop=full gfinput

C 6 H 11 N 1

1 2
C    1.313700   1.370618   0.665902
C    4.098873   1.041730   0.992390
C    5.814196   2.777860   0.309707
C    8.496473   2.406434   0.642734
C   10.232546   4.068127  -0.166844
C   13.013675   3.717356   0.153994
N   14.185986   3.418534  -2.313611
H    0.366021   1.183290   2.494268
H    0.576404  -0.087834  -0.601235
H    0.829646   3.219753  -0.124136
H    4.701185  -0.737069   1.827686
H    5.199260   4.546454  -0.541312
H    9.101394   0.677183   1.576088
H    9.651474   5.795053  -1.118963
H   13.444438   2.072954   1.335772
H   13.805564   5.381430   1.095436
H   13.457742   1.843919  -3.152441
H   16.063202   3.069161  -2.076677

