%chk=mol_6545.chk
# wB97XD/Def2SVP opt pop=full gfinput

C 4 H 10 N 2 S 1

1 2
C    5.258314  -1.861777   2.138244
C    4.418123  -0.144583  -0.011886
C    5.595952   2.485840   0.145358
N    8.321654   2.434251  -0.172267
C    9.684279   2.425104  -2.327217
N    8.443429   2.540453  -4.540426
S   12.816633   2.326914  -2.245977
H    4.295952  -3.687914   2.009025
H    4.802852  -1.026405   3.974831
H    7.295174  -2.212718   2.069836
H    2.355941   0.042840   0.056748
H    4.890007  -1.040502  -1.818843
H    5.210995   3.344834   1.988540
H    4.772333   3.713312  -1.302097
H    9.381527   2.315274   1.419411
H    6.565835   2.256220  -4.678527
H    9.467944   2.445986  -6.153742

