%chk=mol_6242.chk
# wB97XD/Def2SVP opt pop=full gfinput

C 5 H 11 N 1 O 1

1 2
O    1.567528   4.871090   1.066146
C    3.608035   3.354339   1.974783
C    6.012485   4.950119   2.178911
N    6.788501   5.830996  -0.337373
C    9.006076   7.481653  -0.239674
C   11.581527   6.345738  -0.595963
C   10.450299   7.958071  -2.635525
H    0.140936   3.737765   0.821464
H    3.880213   1.759940   0.681927
H    3.084581   2.619217   3.836106
H    7.521771   3.817190   3.030459
H    5.639888   6.584014   3.395535
H    5.270805   6.744319  -1.115845
H    8.855918   9.082212   1.044754
H   11.718362   4.330553  -0.940063
H   13.129742   7.119600   0.498472
H   11.230113   9.828069  -2.925882
H    9.826368   7.030896  -4.351699

