%chk=mol_4432.chk
# wB97XD/Def2SVP opt pop=full gfinput

C 5 H 11 N 1 O 1

1 2
C    4.675976  -1.906148  -0.652938
C    3.719548   0.156186   1.113408
C    5.061745   2.686416   0.675558
C    4.012890   4.712561   2.436348
O    7.700294   2.355733   1.192663
N    9.092210   4.120359  -0.216808
C   11.461226   3.773141   0.232890
H    3.610851  -3.652349  -0.349354
H    6.674380  -2.315708  -0.316661
H    4.448264  -1.350247  -2.631311
H    4.019353  -0.474454   3.065514
H    1.679041   0.387980   0.837564
H    4.790210   3.262404  -1.299470
H    4.346257   4.215242   4.418047
H    1.982890   4.978880   2.149601
H    4.960871   6.522843   2.111561
H   12.881205   4.974912  -0.696874
H   12.166983   2.300628   1.529129

