%chk=mol_5521.chk
# wB97XD/Def2SVP opt pop=full gfinput

C 4 H 8 N 2 O 1

1 2
N    1.874533   0.085019   0.138555
C    4.636159   0.117768   0.006406
C    5.778027   2.237492   1.604566
C    8.334429   1.182137   2.369962
N    7.885355  -1.476349   2.590909
C    5.811664  -2.241121   1.196858
O    5.136540  -4.426116   0.901607
H    1.266287  -1.638487  -0.491045
H    1.152128   1.395808  -1.069339
H    5.282389   0.221098  -1.958588
H    4.638673   2.569820   3.307626
H    5.922251   4.030181   0.584133
H    9.761022   1.478068   0.901985
H    9.012331   1.939709   4.166922
H    9.038541  -2.760928   3.416984

