%chk=mol_0531.chk
# wB97XD/Def2SVP opt pop=full gfinput

C 4 H 6 N 2

1 2
N    2.127132  -0.057712  -0.647723
C    4.435905   0.000454   0.081069
N    5.830807  -2.049899   0.779380
C    8.448871  -1.305215   1.089956
C    8.257933   1.508701   0.770819
C    5.933268   2.330335   0.187536
H    1.487914  -1.876422  -0.525193
H    5.480073  -3.701766  -0.112080
H    9.650019  -2.142175  -0.369139
H    9.142041  -1.812871   2.968609
H    9.871873   2.740821   0.983281
H    5.240154   4.201353  -0.179732

