%chk=mol_4436.chk
# wB97XD/Def2SVP opt pop=full gfinput

C 4 H 8 N 2 O 1

1 2
C    1.621593  -0.477836  -0.127575
C    4.409582  -0.335219   0.277355
C    5.762455   1.802251   0.096225
C    8.537121   1.767593   0.533602
O    9.716027  -0.155241   1.060533
N    9.635544   4.131338   0.280341
N   12.267460   4.404253   0.630809
H    1.200430  -1.780330  -1.677397
H    0.804097   1.364477  -0.592524
H    0.696591  -1.180965   1.582986
H    5.352479  -2.104550   0.746763
H    4.874775   3.585963  -0.366928
H    8.601995   5.684844  -0.174592
H   13.124166   3.061772  -0.480028
H   12.665322   3.783912   2.425709

