%chk=mol_6564.chk
# wB97XD/Def2SVP opt pop=full gfinput

C 6 H 13 N 1

1 2
C    1.846508   0.068351   0.323332
C    4.721707   0.017348   0.002986
C    5.636240  -2.519288  -1.066561
C    5.083760  -2.793450  -3.889359
N    6.124565  -0.686519  -5.352857
C    5.097442   1.732028  -4.481844
C    5.649941   2.189626  -1.683765
H    1.241475   1.861985   1.159876
H    1.230854  -1.450970   1.585839
H    0.848752  -0.159153  -1.472097
H    5.546327   0.262672   1.891068
H    4.776566  -4.092410  -0.029952
H    7.684307  -2.667273  -0.768873
H    5.924669  -4.555525  -4.579940
H    3.046276  -2.950203  -4.230832
H    8.039915  -0.664352  -5.132968
H    5.949576   3.250556  -5.600959
H    3.061772   1.807447  -4.854650
H    7.699066   2.398289  -1.430768
H    4.799054   3.982182  -1.086215

