%chk=mol_5545.chk
# wB97XD/Def2SVP opt pop=full gfinput

C 4 H 6 N 2 O 1

1 2
N    1.943810  -0.039306  -0.026929
C    4.471470   0.128596  -0.006954
C    6.049108   2.197752   0.004875
C    8.537631   1.250753   0.022885
O   10.707699   2.551300   0.038191
C    8.448455  -1.335318   0.021675
N    5.944001  -2.004867   0.002438
H    0.834352   1.528769   0.001531
H    0.973511  -1.693346   0.010148
H    5.456357   4.150935   0.000094
H   10.349652   4.352153   0.033883
H    9.925258  -2.745394   0.031388
H    5.279404  -3.792076  -0.005310

