%chk=mol_0648.chk
# wB97XD/Def2SVP opt pop=full gfinput

C 6 H 6

1 2
C    2.500901  -0.647666  -1.444299
C    4.798393  -0.285840  -0.453308
C    6.106575   2.106213  -0.576404
C    8.408223   2.472083   0.415324
C    9.635336   4.854177   0.256398
C   10.680656   6.865923   0.126479
H    1.585197  -2.478489  -1.308957
H    1.476632   0.846541  -2.406642
H    5.736944  -1.853065   0.490762
H    5.148956   3.660211  -1.525481
H    9.406830   0.956050   1.372168
H   11.605167   8.648823   0.010450

