%chk=mol_4593.chk
# wB97XD/Def2SVP opt pop=full gfinput

C 4 H 10 N 2 O 1

1 2
C    6.172658  -1.505261  -2.529191
C    5.722507  -0.315565   0.047829
C    5.893621   2.565284   0.010299
O    5.079999   3.508579   2.397231
C    8.579791   3.436807  -0.522188
N   10.137303   3.849127   1.327098
N   12.457301   4.557075   0.526515
H    5.931548  -3.556465  -2.416601
H    8.088557  -1.131625  -3.209983
H    4.830121  -0.778888  -3.924621
H    7.081748  -1.090769   1.409679
H    3.849561  -0.878175   0.736918
H    4.649822   3.359196  -1.439442
H    6.601040   3.584678   3.447427
H    9.131213   3.613572  -2.529096
H   13.462806   5.261564   2.023292
H   13.482497   3.023335  -0.057882

