%chk=mol_1408.chk
# wB97XD/Def2SVP opt pop=full gfinput

C 5 H 10 N 2

1 2
C    2.701382  -1.872719   1.636389
C    5.337361  -1.344880   0.765944
C    6.331376   0.984358   0.635420
N    8.733974   1.758617  -0.119771
C   10.669394  -0.138687  -0.735746
C    9.524144   4.262220  -0.102896
N    8.273580   6.328447   0.183152
H    1.631098  -2.788083   0.122511
H    1.694952  -0.151839   2.187944
H    2.741048  -3.145298   3.266316
H    6.433969  -2.991550   0.228600
H    5.141302   2.551433   1.218269
H    9.892055  -1.674278  -1.883150
H   11.465857  -0.930029   1.003879
H   12.218723   0.676900  -1.843182
H   11.581055   4.449512  -0.399394
H    6.394776   5.956133   0.386317

