%chk=mol_4499.chk
# wB97XD/Def2SVP opt pop=full gfinput

C 4 H 10 N 2 O 1

1 2
C    2.831188  -0.281550   2.755712
C    5.526504  -0.350639   1.752381
C    6.168444   1.853481  -0.018274
N    5.934194   4.351718   1.237109
C    8.874986   1.585726  -1.081188
N    9.769940   3.744700  -2.192649
O   10.126362  -0.361694  -1.062366
H    2.426824  -2.009308   3.820611
H    1.464179  -0.148740   1.209009
H    2.537430   1.318783   4.032052
H    5.791066  -2.136713   0.732458
H    6.848311  -0.397239   3.349558
H    4.889232   1.826496  -1.648937
H    6.951301   4.296425   2.877807
H    4.100725   4.600311   1.777968
H    8.902103   5.386041  -1.708501
H   11.596115   3.773254  -2.745697

