%chk=mol_0290.chk
# wB97XD/Def2SVP opt pop=full gfinput

C 4 H 6 N 2

1 2
C    1.784960   0.020409  -0.015023
C    4.579846   0.055785  -0.001909
C    6.175606   2.114434   0.006255
N    8.576163   1.176392   0.016837
N    8.665301  -1.359545   0.016025
C    6.236342  -2.039562   0.004554
H    1.008717   1.937801   0.002948
H    1.066259  -0.977555   1.648181
H    1.082057  -0.940139  -1.706725
H    5.822208   4.125858   0.005480
H   10.230222   2.142156   0.024850
H    5.767274  -4.031315   0.001323

