%chk=mol_4988.chk
# wB97XD/Def2SVP opt pop=full gfinput

C 4 H 7 N 1 O 2

1 2
C    2.149015  -0.014626   0.649272
N    4.863380  -0.090537   0.642450
C    6.491757   2.054019  -0.065819
C    8.355595   0.121113  -1.224240
O    9.095724   0.546414  -3.826828
C    6.145333  -1.772771  -0.833936
O    5.542737  -3.799011  -1.701302
H    1.411210  -1.903975   1.044433
H    1.475441   0.580581  -1.213299
H    1.513727   1.311848   2.096802
H    7.207963   3.095334   1.567339
H    5.602282   3.348557  -1.412117
H   10.001300  -0.303830  -0.044257
H    8.022454  -0.587402  -4.808616

