%chk=mol_5554.chk
# wB97XD/Def2SVP opt pop=full gfinput

C 4 H 8 N 2 O 1

1 2
N    1.996231  -0.002665   0.524437
C    4.663750   0.070676  -0.220323
C    6.120634   1.992414   1.420394
N    7.908901  -0.049700   1.872473
C    6.144293  -2.031418   1.156286
C    9.839237  -0.120867   3.570449
O   10.828225   1.720407   4.559758
H    1.003445  -1.438403  -0.292265
H    1.030751   1.609518   0.092502
H    5.013783   0.212878  -2.254689
H    5.208785   2.647941   3.158450
H    6.933046   3.586322   0.388547
H    6.972863  -3.468328  -0.073945
H    5.243556  -2.919154   2.794168
H   10.461372  -2.066888   3.979461

