%chk=mol_5881.chk
# wB97XD/Def2SVP opt pop=full gfinput

C 4 H 8 N 2 O 1

1 2
N    4.984379  -0.119412   1.905959
C    4.799602   0.964611  -0.399809
O    2.762591   1.178566  -1.476367
N    6.990343   1.828064  -1.429408
C    9.414918   1.907433  -0.260688
C   11.111778  -0.372843  -0.246477
C   11.770877   1.867144  -1.852574
H    6.611509  -1.013517   2.333018
H    3.376411  -0.946677   2.520970
H    6.740029   2.718258  -3.106143
H    9.460725   3.126344   1.394618
H   10.472258  -2.071310  -1.196291
H   12.240475  -0.716868   1.427310
H   13.343545   3.040834  -1.265380
H   11.585666   1.669441  -3.882726

