%chk=mol_4682.chk
# wB97XD/Def2SVP opt pop=full gfinput

C 5 H 13 N 1 O 1

1 2
C    1.723827  -0.180526  -0.159247
C    4.583493   0.086304   0.119261
N    5.876349  -1.397264  -1.868826
C    5.571177   2.868377   0.101214
C    4.834921   4.362244  -2.267104
C    4.747918   4.311807   2.467132
O    8.287621   2.749797   0.147663
H    0.727261   0.838018   1.338701
H    1.161596  -2.169255  -0.024529
H    1.051878   0.531467  -1.982493
H    5.148729  -0.774769   1.919735
H    5.209843  -0.867195  -3.600495
H    5.378690  -3.252880  -1.682045
H    5.511897   3.437979  -3.990383
H    5.717253   6.237174  -2.246072
H    2.789141   4.622005  -2.414805
H    5.320732   3.301616   4.181832
H    2.702101   4.603089   2.527868
H    5.667478   6.166252   2.554003
H    8.695858   1.225714  -0.825905

