%chk=mol_1638.chk
# wB97XD/Def2SVP opt pop=full gfinput

C 5 H 12 N 2

1 2
C    2.068400   0.045996   0.042028
N    4.826096   0.024888  -0.003912
C    5.852822   1.932680   1.781993
C    7.828323  -0.051835   2.576358
C    5.828804  -2.004225   1.697484
C    6.790390  -4.296141   0.224310
N    8.166376  -6.034122   1.885777
H    1.335224  -1.586935  -0.996755
H    1.364382   1.744671  -0.908089
H    1.262791   0.002608   1.950594
H    4.591826   2.507818   3.325483
H    6.622526   3.628614   0.884845
H    9.564641  -0.006123   1.446434
H    8.319292  -0.089082   4.581546
H    4.541749  -2.558122   3.235022
H    8.033093  -3.724064  -1.331747
H    5.187828  -5.314893  -0.601953
H    9.795150  -5.184502   2.471251
H    8.721256  -7.565065   0.852985

