%chk=mol_6744.chk
# wB97XD/Def2SVP opt pop=full gfinput

C 5 H 8 N 2

1 2
C    1.743801  -0.124231   0.123229
C    4.625029   0.050720   0.163405
C    5.553546   2.488561  -1.006770
C    7.364603   2.111675  -3.128536
N    8.123781  -0.029518  -4.019977
N    7.253865  -2.275816  -2.979739
C    5.690098  -2.246809  -1.104054
H    0.892726   1.503183   1.077824
H    1.096910  -1.835585   1.090769
H    1.021605  -0.195813  -1.814855
H    5.232104  -0.032862   2.142685
H    6.511373   3.643846   0.422278
H    3.997073   3.651253  -1.728192
H    8.119643   3.840641  -4.015309
H    5.095911  -4.091314  -0.336069

