%chk=mol_1556.chk
# wB97XD/Def2SVP opt pop=full gfinput

C 5 H 12 N 2

1 2
C    4.429915  -0.597569  -0.550232
C    7.294494  -0.782403  -0.630450
N    8.336981   1.667948   0.080899
C   10.761499   1.950197   0.183209
C   12.605645  -0.169981  -0.385920
N   11.808351   4.238278   0.838717
C   10.318320   6.274684   1.882318
H    3.573869  -2.397647  -1.099102
H    3.747327   0.868461  -1.840990
H    3.774350  -0.118391   1.352817
H    7.873620  -1.300623  -2.549448
H    7.905065  -2.260812   0.684081
H   12.363514  -1.688281   0.994298
H   14.557883   0.500513  -0.282816
H   12.274848  -0.903573  -2.288137
H   13.659300   4.253736   1.326531
H    8.709597   6.730430   0.663294
H   11.483866   7.973605   2.050391
H    9.623960   5.776931   3.765298

