%chk=mol_0213.chk
# wB97XD/Def2SVP opt pop=full gfinput

C 4 H 8 O 1

1 2
C    1.837324  -0.016082  -0.075192
C    4.713676   0.005329   0.002872
C    5.837628  -1.421754  -2.227723
C    5.636297   2.708941  -0.045410
O    6.881721   3.659738   1.665019
H    1.051784   1.036723   1.525066
H    1.112387  -1.951463   0.012019
H    1.120721   0.864758  -1.806937
H    5.358318  -0.864304   1.770050
H    5.253911  -0.588366  -4.031013
H    5.243234  -3.402679  -2.209808
H    7.906104  -1.371091  -2.163453
H    5.124314   3.820044  -1.735846

