%chk=mol_4873.chk
# wB97XD/Def2SVP opt pop=full gfinput

C 4 H 10 N 2 O 1

1 2
C    4.240696   6.586678  -3.324198
C    5.970986   4.752208  -1.965882
O    8.377174   5.920550  -1.653416
C   10.079082   4.317514  -0.313165
C   12.660995   5.608518  -0.141049
N   12.764212   8.182476  -0.132923
N   14.748178   4.339132   0.005083
H    2.379373   5.745769  -3.646548
H    5.048687   7.141785  -5.147727
H    4.005275   8.320842  -2.217707
H    6.177893   3.024053  -3.085639
H    5.174183   4.273162  -0.116672
H   10.288765   2.508593  -1.297788
H    9.389935   3.997489   1.612277
H   11.292248   9.009534  -1.050669
H   14.487548   8.850230  -0.632208
H   14.393383   2.435233  -0.005650

