%chk=mol_5871.chk
# wB97XD/Def2SVP opt pop=full gfinput

C 6 H 11 N 1

1 2
C    1.768784  -0.050097   0.118429
C    4.642528  -0.009108  -0.068918
C    5.724491  -2.292219  -1.367935
C    7.695550  -1.682839  -2.830848
C    8.224390   1.095115  -2.764027
C    5.782638   2.212435  -1.616869
N    4.103484   3.167597  -3.622473
H    1.061289   1.719367   0.922923
H    1.150050  -1.595193   1.349586
H    0.867535  -0.340377  -1.721805
H    5.407565   0.054386   1.859736
H    5.053827  -4.198858  -1.058832
H    8.825588  -3.023694  -3.876660
H    9.860232   1.475952  -1.553789
H    8.629227   1.835926  -4.652903
H    6.228481   3.804075  -0.369555
H    3.675366   1.706763  -4.808030
H    5.055736   4.452251  -4.695289

