%chk=mol_4149.chk
# wB97XD/Def2SVP opt pop=full gfinput

C 6 H 11 N 1

1 2
C    1.423228   2.019135  -0.837149
C   -0.938211   0.625462  -0.086209
C    1.556397  -0.730096  -0.127273
C    2.961352  -1.678927   2.171201
C    2.623771  -0.487323   4.819199
N    2.925466  -3.039152   5.934496
C    2.068400  -4.124422   3.499225
H    1.660880   2.511446  -2.810779
H    2.168499   3.409463   0.468539
H   -2.295186   0.179052  -1.555528
H   -1.797904   1.094340   1.711563
H    1.855484  -2.070252  -1.652773
H    4.981186  -1.797413   1.670801
H    0.767418   0.345007   5.201207
H    4.077386   0.873979   5.373266
H    4.760163  -3.467364   6.344132
H    3.044916  -5.855808   2.931872
H    0.025133  -4.459961   3.422218

