%chk=mol_6519.chk
# wB97XD/Def2SVP opt pop=full gfinput

C 4 H 2 N 2 S 1

1 2
C    1.796903   0.016384  -0.001266
C    4.065784   0.056182  -0.001020
C    6.761232   0.096981   0.000057
N    7.901266   2.344697   0.003609
S   10.997828   1.655438   0.004649
N   10.868892  -1.516108   0.000680
C    8.398831  -2.039959  -0.001568
H   -0.215353   0.002665  -0.001266
H    7.836468  -4.004991  -0.004309

