%chk=mol_3658.chk
# wB97XD/Def2SVP opt pop=full gfinput

C 5 H 10 O 2

1 2
O    3.999001  -0.502365  -2.716973
C    4.466292   0.109963  -0.143865
C    5.788080   2.650775  -0.000907
C    4.234083   4.857296  -0.956919
C    5.576053   7.072338   0.258118
O    6.554912   6.189987   2.628836
C    6.379583   3.481783   2.675947
H    3.173247  -2.144745  -2.743863
H    5.654042  -1.373018   0.675577
H    2.657503   0.137667   0.861885
H    7.540234   2.582481  -1.111235
H    2.287532   4.739736  -0.251371
H    4.166109   5.000726  -3.018233
H    7.177860   7.700143  -0.891478
H    4.321652   8.682423   0.578502
H    8.158798   2.691972   3.372292
H    4.874057   2.976734   4.004840

