%chk=mol_3027.chk
# wB97XD/Def2SVP opt pop=full gfinput

C 6 H 10 O 1

1 2
C    2.419492   0.168223   0.639238
C    5.018602  -0.130164  -0.578710
C    4.841384  -1.572328  -3.056216
O    2.943570  -2.659620  -3.821499
C    6.229274   2.420777  -0.979426
C    7.957391   3.508617   1.008755
C    9.027884   2.643614  -1.475612
H    2.552510   1.204398   2.425747
H    1.563163  -1.675923   1.026991
H    1.125672   1.211069  -0.597947
H    6.204935  -1.283219   0.671363
H    6.626646  -1.711865  -4.128579
H    4.998628   3.719378  -1.986045
H    8.387795   2.391241   2.672129
H    7.864511   5.524520   1.364987
H    9.652514   4.079711  -2.799100
H   10.181826   0.950910  -1.479504

