%chk=mol_5294.chk
# wB97XD/Def2SVP opt pop=full gfinput

C 4 H 6 N 2 O 1

1 2
C    5.793749  -2.017642   1.013007
O    4.318874   0.175348   0.528141
C    5.769938   2.261265   0.351017
C    4.738980   4.598346  -0.111494
N    6.750045   6.215064  -0.160608
C    8.880390   4.817574   0.266414
N    8.346296   2.413275   0.583699
H    4.508905  -3.633830   1.134365
H    6.792375  -1.863629   2.820624
H    7.125798  -2.380337  -0.530559
H    2.816391   5.216041  -0.397750
H    6.688421   8.100651  -0.457144
H   10.748025   5.648014   0.324145

