%chk=mol_1094.chk
# wB97XD/Def2SVP opt pop=full gfinput

C 4 H 7 N 1 O 1

1 2
N    1.921719  -0.033316   0.142920
C    4.667624   0.000000   0.000000
C    5.578509   2.572238   0.000000
C    6.329260   4.692322   0.000000
C    7.240146   7.264561   0.000000
O    5.379805   8.880390  -1.063916
H    1.295653  -1.825211  -0.161496
H    1.217286   1.043620  -1.291250
H    5.275378  -0.975212  -1.721465
H    5.440540  -1.047929   1.608346
H    8.966732   7.439587  -1.122989
H    7.644226   7.907332   1.922211
H    6.035388  10.591594  -0.933430

