%chk=mol_5694.chk
# wB97XD/Def2SVP opt pop=full gfinput

C 5 H 11 N 1 O 1

1 2
N    1.455958   0.161855   0.708496
C    4.164862  -0.317417   0.479556
C    5.562276   2.136562  -0.134114
C    8.435152   1.808336  -0.137629
C    9.366371   0.307912  -2.345207
C   11.709234  -1.297259  -2.123410
O    9.225492  -2.378126  -2.053698
H    0.557583  -1.503031   1.077786
H    0.768892   0.771481  -0.984547
H    4.466160  -1.726813  -1.003275
H    4.858524  -1.108230   2.261794
H    5.080264   3.566650   1.289474
H    4.932166   2.870683  -1.966808
H    9.048198   0.959452   1.653057
H    9.310907   3.682245  -0.232077
H    8.903313   1.121515  -4.161196
H   12.773377  -1.277323  -0.376396
H   12.829256  -1.623350  -3.804548

