%chk=mol_5592.chk
# wB97XD/Def2SVP opt pop=full gfinput

C 6 H 9 N 1

1 2
C    1.767688  -0.121358   0.483127
C    4.490688   0.176935  -0.088345
C    5.905545   2.275967   0.011263
C    8.516656   1.782238  -0.691243
C   10.063113  -0.055539   0.832292
N    8.695424  -0.939364  -1.401402
C    6.139040  -1.998310  -0.867233
H    1.441200  -1.832354   1.594041
H    0.677051  -0.262067  -1.263660
H    1.041239   1.479334   1.573783
H    5.226737   4.133133   0.518616
H    9.447629   3.077362  -1.974084
H   12.099236   0.033675   0.647534
H    9.399554  -0.645417   2.675096
H    6.234509  -3.442665   0.609361
H    5.403861  -2.868415  -2.593215

