%chk=mol_0970.chk
# wB97XD/Def2SVP opt pop=full gfinput

C 6 H 12

1 2
C    1.734599  -0.110832   0.098360
C    4.604979  -0.227618  -0.241413
C    5.246806  -1.759165  -2.610789
C    5.697278   2.469229  -0.340151
C    8.534154   2.529531  -0.477950
C    9.836421   3.610908  -2.357981
H    1.239226   0.917613   1.824001
H    0.933279  -2.012804   0.246515
H    0.828191   0.842780  -1.499365
H    5.400856  -1.216114   1.400438
H    4.578750  -0.806800  -4.322616
H    4.363925  -3.629616  -2.534708
H    7.286727  -2.049276  -2.789463
H    5.131646   3.495464   1.370562
H    4.871015   3.498148  -1.940616
H    9.560975   1.646726   1.069755
H    8.895186   4.522285  -3.937055
H   11.887870   3.603670  -2.355279

