%chk=mol_3128.chk
# wB97XD/Def2SVP opt pop=full gfinput

C 5 H 10 O 2

1 2
C    0.784917  -1.170043  -0.010280
C    3.640463  -1.076974   0.256171
C    4.682061   1.551427  -0.308630
O    7.385617   1.550785  -0.083375
C    8.305252   1.953485   2.284868
C   11.136364   1.932226   2.235867
O    7.039060   2.305277   4.184968
H    0.090234  -3.072581   0.402587
H    0.204166  -0.676087  -1.931962
H   -0.122454   0.144243   1.302494
H    4.514367  -2.454603  -1.021038
H    4.178789  -1.657120   2.171182
H    3.833612   2.996274   0.911094
H    4.242983   2.080267  -2.262399
H   11.813491   0.177615   1.380048
H   11.855103   2.026920   4.172402
H   11.829365   3.569012   1.184121

