%chk=mol_6045.chk
# wB97XD/Def2SVP opt pop=full gfinput

C 4 H 4 N 2 O 1

1 2
O    1.964238  -0.151726   0.277034
C    4.524628   0.005594   0.061284
C    5.795506   2.300156  -0.047697
N    8.341875   2.456342  -0.264297
C    9.553586   0.207700  -0.364207
C    8.279174  -2.078340  -0.254187
N    5.737208  -2.227005  -0.038494
H    1.281310   1.545985   0.324504
H    4.814663   4.094507   0.033524
H   11.593356   0.288788  -0.537967
H    9.276477  -3.865605  -0.336957

