%chk=mol_2430.chk
# wB97XD/Def2SVP opt pop=full gfinput

C 5 H 8 O 2

1 2
C    1.522042  -0.032333  -0.905160
C    4.213825  -0.127462  -0.007880
C    6.091230  -1.577770  -1.618097
O    5.925709   1.121231  -1.713963
C    4.753285   0.378701   2.786817
C    2.877392   1.350682   4.698502
O    3.458898  -1.282784   4.512874
H    1.369900  -0.407954  -2.935179
H    0.705000   1.834301  -0.554124
H    0.381479  -1.447946   0.082751
H    5.411174  -2.631954  -3.234512
H    7.727638  -2.400292  -0.703677
H    6.724685   0.765547   3.224950
H    1.030846   1.968887   4.071132
H    3.597037   2.366939   6.325613

