%chk=mol_4809.chk
# wB97XD/Def2SVP opt pop=full gfinput

C 4 H 8 N 2 O 1

1 2
C    1.985705   0.856575   0.238559
C    4.391705  -0.702336   0.081731
N    4.164900  -3.316262  -0.024850
O    1.844203  -4.179621  -0.944939
N    6.480532   0.594243   0.042670
C    8.736185  -0.653184   0.040875
C   10.708152   0.182944  -1.295275
H    2.422459   2.839767   0.624706
H    0.783953   0.133755   1.756765
H    0.969713   0.738278  -1.557437
H    5.660618  -4.164578  -0.890099
H    0.870351  -4.483696   0.593412
H    8.957416  -2.298134   1.253984
H   10.543840   1.863176  -2.457834
H   12.514409  -0.778189  -1.231459

