%chk=mol_4489.chk
# wB97XD/Def2SVP opt pop=full gfinput

C 4 H 10 N 2 O 1

1 2
C    1.569588  -0.495184   0.455254
C    4.363321   0.068956  -0.035111
C    6.025732  -1.290948   1.905241
N    5.075634  -0.826510  -2.603495
C    4.870750   2.953170   0.116407
N    7.141294   3.679807  -0.892140
O    3.451868   4.495186   1.098441
H    0.352037   0.503480  -0.891081
H    1.008226   0.112647   2.354221
H    1.165130  -2.520347   0.299087
H    5.627000  -0.610552   3.820970
H    8.041730  -0.965442   1.555434
H    5.703231  -3.336765   1.879692
H    3.860616  -0.031294  -3.876849
H    4.750318  -2.724910  -2.705483
H    7.961284   2.472121  -2.135995
H    7.483504   5.550976  -1.041749

