%chk=mol_6442.chk
# wB97XD/Def2SVP opt pop=full gfinput

C 4 H 6 N 2 S 1

1 2
C    2.060935  -0.193017   0.492689
C    4.504673   0.027288  -0.089271
C    6.072597   2.409533  -0.235781
N    8.505657   1.412514  -0.972000
C    8.447208  -1.190452  -1.218836
S   10.847047  -3.000167  -2.019588
N    6.023578  -1.981586  -0.677202
H    1.125275  -2.015998   0.534755
H    0.931427   1.458188   0.940762
H    6.264763   3.350371   1.592510
H    5.413933   3.712386  -1.696218
H   10.086829   2.441375  -1.273940
H    5.484174  -3.812485  -0.729926

