%chk=mol_5444.chk
# wB97XD/Def2SVP opt pop=full gfinput

C 4 H 10 N 2 O 1

1 2
C    4.017388  -0.307685  -4.178392
O    5.627907  -0.085359  -2.036482
N    6.839373   2.269901  -2.140663
C    8.210369   2.530570  -0.139235
C    9.747812   4.879651   0.276977
C   12.545135   4.218133   0.142750
N   14.100191   6.439242   0.650746
H    3.065344  -2.139094  -4.092825
H    5.125957  -0.212349  -5.921457
H    2.588660   1.187334  -4.157964
H    8.325453   1.045548   1.325265
H    9.259431   5.628398   2.144234
H    9.252459   6.297664  -1.148216
H   13.015167   3.456177  -1.725018
H   12.999597   2.748852   1.529884
H   13.764066   7.785029  -0.688427
H   15.961231   5.970741   0.474794

