%chk=mol_6332.chk
# wB97XD/Def2SVP opt pop=full gfinput

C 5 H 7 N 1 O 1

1 2
O    2.139491   0.282401   1.021888
N    4.525573   0.029555  -0.093296
C    5.640171   2.210753  -0.261463
C    8.240416   2.417489  -1.413950
C    8.598859   5.213906  -1.275206
C    6.657978   6.424048  -0.201483
C    4.569433   4.708952   0.614010
H    1.506962  -1.448796   0.994260
H    8.232327   1.728514  -3.360878
H    9.626851   1.401421  -0.269494
H   10.276670   6.141666  -1.984779
H    6.577305   8.449759   0.062191
H    4.322219   4.722180   2.663531
H    2.799308   5.135690  -0.360692

