%chk=mol_2938.chk
# wB97XD/Def2SVP opt pop=full gfinput

C 6 H 4 O 1

1 2
C    1.889726   0.000000   0.000000
C    4.618491   0.000000   0.000000
C    6.867567   0.000000   0.000000
C    9.599450  -0.011036   0.000000
O   10.758438  -2.011557  -0.000000
C   10.951568   2.361761   0.000000
C   12.082171   4.332443   0.000000
H    1.145117   1.929165   0.022072
H    1.145042  -0.983659   1.659652
H    1.145042  -0.945430  -1.681724
H   13.096634   6.071463   0.000000

