%chk=mol_1347.chk
# wB97XD/Def2SVP opt pop=full gfinput

C 5 H 14 N 2

1 2
C    3.604823  -1.777287   4.362792
C    3.399731  -0.317701   1.887553
C    4.885736   2.200907   1.805992
C    3.935714   4.131565   3.807760
N    1.243081   4.730533   3.554915
N    7.611911   1.636975   2.037899
C    9.226947   3.818456   1.574406
H    2.539603  -3.545901   4.226410
H    2.823742  -0.703394   5.947062
H    5.567171  -2.260169   4.802437
H    1.397075   0.042084   1.493640
H    4.058659  -1.544908   0.349543
H    4.558095   3.014397  -0.076458
H    4.975366   5.911857   3.625269
H    4.291379   3.423182   5.719464
H    0.932769   5.575410   1.853708
H    0.762618   6.024976   4.897282
H    8.060986   0.254282   0.769478
H    9.096783   5.197333   3.106577
H    8.780178   4.737052  -0.223914
H   11.197213   3.197870   1.492789

