%chk=mol_4461.chk
# wB97XD/Def2SVP opt pop=full gfinput

C 5 H 9 N 1 O 1

1 2
C    1.796733  -1.698448  -2.358775
C    3.433614  -1.095493  -0.527801
C    4.665186   1.436060  -0.246288
N    7.404363   1.117414  -0.346840
C    8.670177   3.578385  -0.199309
C   11.496867   3.154142  -0.276580
O   12.830031   3.727579  -2.088771
H    0.970696  -3.576401  -2.446893
H    1.245859  -0.353114  -3.806872
H    3.919462  -2.512920   0.882786
H    4.106772   2.236850   1.580832
H    4.022811   2.728897  -1.732973
H    7.847485   0.308044  -2.045666
H    8.230759   4.552256   1.572800
H    8.140392   4.795483  -1.787549
H   12.316045   2.244919   1.412570

