%chk=mol_4780.chk
# wB97XD/Def2SVP opt pop=full gfinput

C 4 H 10 N 2 O 1

1 2
C    6.248058  -1.520814  -2.395001
C    6.133201  -0.363905   0.232550
N    6.343092   2.395984   0.160683
N    4.065519   3.742281  -0.349202
C    8.570588   3.801109   0.265998
C   10.986112   2.363556   0.716527
O    8.583986   6.119255   0.012680
H    6.103400  -3.580483  -2.278367
H    8.022019  -1.048269  -3.347215
H    4.696612  -0.833105  -3.578858
H    7.649460  -1.145420   1.398945
H    4.343233  -0.858295   1.151240
H    4.475911   4.980732  -1.786642
H    3.780926   4.924551   1.159007
H   10.894876   1.353252   2.514356
H   12.563088   3.697967   0.813470
H   11.340719   1.053220  -0.837678

