%chk=mol_3961.chk
# wB97XD/Def2SVP opt pop=full gfinput

C 4 H 8 N 2 O 1

1 2
C    1.906394  -0.074795   0.136325
C    4.777511  -0.014438   0.059167
C    5.894680   2.216479   1.514256
C    8.306102   1.126522   2.516605
O   10.076814   2.297945   3.409727
N    8.109325  -1.464916   2.339349
N    5.857433  -2.288987   1.243610
H    1.173992  -1.695916  -0.922545
H    1.121571   1.643570  -0.709932
H    1.196178  -0.208305   2.076847
H    5.413083   0.079784  -1.913102
H    4.721783   2.805657   3.113985
H    6.286023   3.819231   0.271025
H    9.465902  -2.624017   3.045842
H    6.232959  -3.606731  -0.120187

