%chk=mol_4093.chk
# wB97XD/Def2SVP opt pop=full gfinput

C 5 H 11 N 1 O 1

1 2
C    1.888630   0.107677   0.051665
C    4.750167  -0.033221   0.041555
N    5.940619   1.884643   1.713736
C    7.865702  -0.014532   2.436859
C    5.985122  -2.111240   1.696710
C    7.025567  -4.368801   0.282760
O    8.375380  -5.951711   1.988332
H    1.086063  -1.499384  -0.976214
H    1.234256   1.837305  -0.877589
H    1.113143   0.077517   1.971514
H    5.497176   0.047942  -1.893921
H    4.824546   2.421986   3.193902
H    9.579683   0.083998   1.276397
H    8.416179   0.027836   4.429159
H    4.785013  -2.692992   3.290864
H    8.292515  -3.823936  -1.260712
H    5.484873  -5.488521  -0.522207
H    9.933516  -5.087407   2.438295

