%chk=mol_5911.chk
# wB97XD/Def2SVP opt pop=full gfinput

C 4 H 6 N 2 O 1

1 2
N    1.906431   0.217262   0.942217
N    4.466859   0.171077   0.741170
C    5.540280   2.306543   0.173250
C    4.307139   4.845258  -0.286105
O    2.599469   5.506189   1.675563
C    8.240850   2.042926  -0.062682
C   10.492629   1.827422  -0.260045
H    1.132948  -0.453893  -0.706852
H    1.381428  -1.148821   2.218595
H    3.264275   4.767174  -2.070611
H    5.739042   6.328919  -0.428514
H    1.681705   3.933635   2.026996
H   12.488161   1.617946  -0.423110

