%chk=mol_0381.chk
# wB97XD/Def2SVP opt pop=full gfinput

C 4 H 6 N 2

1 2
C    1.889726   0.000000   0.000000
C    4.618491   0.000000   0.000000
C    6.867567   0.000000   0.000000
C    9.581686  -0.034903  -0.050116
N   10.795835  -2.263646  -0.279793
N   10.642503   2.129495   0.164765
H    1.145117   1.929165   0.022091
H    1.145079  -0.983697   1.659652
H    1.145079  -0.945449  -1.681724
H    9.886234  -3.802923   0.393498
H   12.641323  -2.152398   0.216374
H    9.313231   3.532730   0.300807

