%chk=mol_2088.chk
# wB97XD/Def2SVP opt pop=full gfinput

C 5 H 10 N 2

1 2
N    1.805803  -0.076742   0.397031
C    4.555034  -0.242924   0.207397
C    5.727571   2.402579   0.233192
C    8.615866   2.328105  -0.074739
N    9.612829   4.891934  -0.353889
C    9.860100   1.141980   2.110673
C   10.880665   0.179127   3.898562
H    1.055525  -1.851270   0.358632
H    1.094019   0.841023  -1.139278
H    5.056756  -1.233292  -1.540127
H    5.255026  -1.368899   1.794994
H    5.215417   3.370308   1.997762
H    4.905124   3.510582  -1.318349
H    9.093910   1.270142  -1.790345
H    9.237983   5.881395   1.256158
H    8.671291   5.797170  -1.765155
H   11.794612  -0.660648   5.482152

