%chk=mol_2726.chk
# wB97XD/Def2SVP opt pop=full gfinput

C 6 H 10 O 1

1 2
C    2.075600   1.794163   2.697055
C    4.835885   1.539352   2.149469
C    5.968322   2.527150   0.108773
C    8.732198   2.236642  -0.494541
C   10.137644   4.691642  -0.602105
C   11.841685   5.530718   1.517393
O   12.833451   4.417235  -0.748124
H    1.207951  -0.078745   2.820416
H    1.084041   2.866469   1.232460
H    1.799983   2.760266   4.503784
H    5.935800   0.465062   3.515741
H    4.852098   3.583166  -1.259635
H    8.884018   1.315892  -2.344394
H    9.633257   0.956787   0.864984
H    9.274342   6.092345  -1.816102
H   11.922981   4.415232   3.231016
H   12.140394   7.537494   1.787511

