%chk=mol_2955.chk
# wB97XD/Def2SVP opt pop=full gfinput

C 6 H 12 O 1

1 2
C    2.505947  -1.106699   2.960728
C    3.098754  -0.288391   0.266999
C    5.776326   0.748596  -0.018670
C    7.828398  -1.264983   0.051949
O    7.342512  -3.538437   0.108848
C   10.525661  -0.279868  -0.013001
C   12.477578  -2.380904   0.062644
H    0.544997  -1.751644   3.090874
H    2.748947   0.465761   4.282214
H    3.726068  -2.659676   3.570052
H    1.754403   1.193324  -0.272782
H    2.792127  -1.880807  -1.021926
H    6.164834   2.138981   1.465010
H    5.932285   1.699525  -1.852102
H   10.796024   0.971244   1.612371
H   10.765959   0.823562  -1.746920
H   12.284486  -3.513492   1.783788
H   14.388148  -1.591055   0.018935
H   12.266099  -3.650384  -1.558249

