%chk=mol_4314.chk
# wB97XD/Def2SVP opt pop=full gfinput

C 5 H 9 N 1 O 1

1 2
C    1.437496  -0.097113   0.147455
C    4.247443  -0.098946   0.435223
C    5.745221   1.796185  -0.339489
C    8.568377   1.816235  -0.067199
C    9.775516   1.957548  -2.668312
N   10.543916  -0.300939  -3.653691
O   10.025299   3.925396  -3.867325
H    0.843819  -1.736224  -0.965140
H    0.748256   1.607798  -0.799694
H    0.539460  -0.212027   2.006454
H    5.063370  -1.756293   1.336395
H    4.918182   3.457878  -1.231251
H    9.259941   0.142334   0.937229
H    9.169480   3.471200   1.020962
H    9.867489  -1.951520  -2.970366
H   11.167394  -0.269191  -5.460628

