%chk=mol_0910.chk
# wB97XD/Def2SVP opt pop=full gfinput

C 4 H 6 O 2

1 2
O    4.522984  -1.254986   2.638908
C    4.890026  -0.268001   0.177861
C    5.774569   2.389275   0.470523
C    7.934752   3.270851  -0.514289
C    8.693420   5.924027  -0.113762
O   10.636097   6.768394  -1.046474
H    4.029671  -3.013130   2.439372
H    3.089627  -0.313241  -0.837130
H    6.263384  -1.447700  -0.822258
H    4.553125   3.615254   1.577562
H    9.219332   2.118874  -1.615829
H    7.419726   7.089988   1.051935

