%chk=mol_0261.chk
# wB97XD/Def2SVP opt pop=full gfinput

C 5 H 11 N 1

1 2
C    1.772317  -0.060868   0.287352
C    4.626371   0.076269  -0.052912
C    5.410739   0.025606  -2.828901
C    5.965166   2.086050   1.602715
C    7.835032  -0.029121   2.274607
N    5.925822  -1.893997   1.466730
H    1.233802  -0.107941   2.287041
H    0.991520  -1.753704  -0.613141
H    0.856329   1.588787  -0.564083
H    7.467253   0.068295  -3.065778
H    4.640298   1.666323  -3.829530
H    4.705456  -1.677869  -3.771251
H    4.862058   2.759189   3.222909
H    6.768262   3.715447   0.618186
H    9.554701  -0.040554   1.120456
H    8.368331  -0.146473   4.266983
H    6.625342  -3.383800   0.467934

