%chk=mol_6281.chk
# wB97XD/Def2SVP opt pop=full gfinput

C 5 H 10 N 2

1 2
C    1.887099  -0.072736   0.153295
C    4.750979  -0.055841   0.138970
C    5.893432   2.208787   1.548309
C    8.483170   1.268006   2.427712
C    8.011003  -1.532322   2.643765
N    9.616117  -3.048090   3.640009
N    5.766556  -2.181594   1.554980
H    1.163221  -1.753590  -0.813338
H    1.139429   1.598217  -0.809672
H    1.134932  -0.097982   2.082044
H    5.463935  -0.119468  -1.805879
H    4.745480   2.699152   3.205070
H    6.031231   3.892477   0.355949
H    9.941585   1.598368   0.999363
H    9.059366   2.088884   4.231966
H    8.899647  -4.842329   3.591028
H    5.602452  -3.929610   0.797351

