%chk=mol_1612.chk
# wB97XD/Def2SVP opt pop=full gfinput

C 4 H 5 N 3

1 2
C    1.850250   1.321826  -0.260763
C    4.580885   0.695570   0.098096
N    5.571310  -1.507227   0.514383
N    3.781626  -3.434199   0.619396
C    4.855991  -5.584141   1.039406
C    6.438769   2.688532  -0.013228
N    7.882558   4.342175  -0.115141
H    1.588050   3.350258  -0.556109
H    0.780892   0.750278   1.413080
H    1.118283   0.309669  -1.907490
H    3.701614  -7.309253   1.177639
H    6.916700  -5.802083   1.274469

