%chk=mol_4813.chk
# wB97XD/Def2SVP opt pop=full gfinput

C 5 H 11 N 1 O 1

1 2
C    4.348354  -0.930463  -2.618083
C    4.705191   0.085869   0.048717
O    6.092496  -1.736961   1.486251
C    6.153213   2.587300  -0.009165
C    4.767968   4.954446  -1.031866
C    6.102436   6.340296   1.150031
N    6.205898   3.890663   2.491453
H    3.240975   0.371841  -3.782079
H    3.385596  -2.762043  -2.572125
H    6.173603  -1.235749  -3.548112
H    2.856132   0.312976   0.952535
H    7.767020  -1.880769   0.748842
H    8.052860   2.370510  -0.826793
H    2.703726   4.900079  -0.859107
H    5.279573   5.558214  -2.938921
H    7.964572   7.104936   0.660743
H    4.993337   7.804097   2.094573
H    7.783121   3.566556   3.543633

