%chk=mol_5194.chk
# wB97XD/Def2SVP opt pop=full gfinput

C 4 H 8 N 2 O 1

1 2
C    3.815754  -0.971565   0.942860
N    6.369511  -0.140010   0.556373
C    8.062177  -1.502861  -0.856027
O    7.659589  -3.576023  -1.793577
C   10.577156  -0.273443  -1.166585
C   11.082015   1.394996  -3.407592
N   10.653482   2.509046  -0.918747
H    3.021275   0.059451   2.545386
H    3.777922  -3.001905   1.321372
H    2.717332  -0.571812  -0.762505
H    6.866584   1.682196   0.902628
H   12.151222  -1.306878  -0.361712
H    9.589283   1.648200  -4.786090
H   12.989014   1.477785  -4.147212
H   12.328309   3.051227  -0.121566

