%chk=mol_0976.chk
# wB97XD/Def2SVP opt pop=full gfinput

C 4 H 5 N 1 O 1

1 2
C    1.889726   0.000000   0.000000
C    4.618491   0.000000   0.000000
C    6.867567   0.000000   0.000000
C    9.592685   0.027269  -0.000000
N   10.742886  -2.270487   0.000000
O   10.761650   2.018435  -0.000000
H    1.145042   1.929127   0.022072
H    1.145079  -0.983716   1.659633
H    1.145079  -0.945468  -1.681724
H    9.752782  -3.899015   0.000000
H   12.651546  -2.316407   0.000000

