%chk=mol_1678.chk
# wB97XD/Def2SVP opt pop=full gfinput

C 6 H 13 N 1

1 2
C    3.924092  -1.346203  -2.409703
N    3.389054   0.792740  -0.755513
C    5.690759   2.138074   0.117787
C    7.159039   0.801886   2.172637
C    7.140633   3.735403  -1.761338
C    5.514844   5.013216   0.187026
C    6.687458   6.570465   2.221373
H    4.927045  -0.755664  -4.118205
H    2.143308  -2.222261  -2.989830
H    5.034760  -2.795850  -1.443467
H    2.202835   2.000464  -1.675979
H    8.921284   1.774056   2.646448
H    7.675916  -1.114579   1.588598
H    6.017663   0.667489   3.894215
H    6.508387   3.793002  -3.708663
H    9.177399   3.847312  -1.571194
H    3.765374   5.873571  -0.448810
H    8.651847   6.048749   2.601548
H    5.608575   6.381019   3.975474
H    6.671697   8.566318   1.675318

