%chk=mol_5936.chk
# wB97XD/Def2SVP opt pop=full gfinput

C 5 H 9 N 1 O 1

1 2
O    1.395790   0.024018  -0.045146
C    4.064480   0.063268   0.399242
C    5.663679  -1.584460  -1.272390
C    4.752453  -2.700419  -3.699214
N    5.268840  -0.688767  -5.562522
C    4.848886   1.732047  -4.248841
C    5.712321   1.210502  -1.612654
H    0.611874   1.608629   0.454744
H    4.681777   0.269928   2.346549
H    7.305984  -2.513846  -0.493502
H    5.785737  -4.421638  -4.193983
H    2.731996  -3.141575  -3.648948
H    7.139820  -0.788923  -6.009877
H    5.953526   3.236194  -5.139167
H    2.849631   2.259546  -4.320953
H    7.397295   2.230916  -1.074309

