%chk=mol_1808.chk
# wB97XD/Def2SVP opt pop=full gfinput

C 4 H 7 N 3

1 2
C    1.850855  -0.126026   0.269191
N    4.596117   0.080975   0.322425
C    5.958779  -2.291765  -0.072414
C    5.775003   2.379052  -0.103916
N    4.776887   4.599896  -0.092275
C    8.485853   2.507232  -0.651162
N   10.638535   2.479245  -1.091241
H    0.987703   1.205532   1.596743
H    1.208121  -2.014184   0.821917
H    1.137370   0.265280  -1.633064
H    4.906409  -3.905251   0.685120
H    7.784802  -2.273851   0.900832
H    6.270867  -2.614701  -2.092210
H    2.900730   4.484830   0.323464

