%chk=mol_6612.chk
# wB97XD/Def2SVP opt pop=full gfinput

C 4 H 5 N 1 O 1 S 1

1 2
C    5.836948  -2.254065   1.015312
O    4.509189   0.028346   0.518749
C    5.846473   2.173960   0.375640
C    4.883922   4.559097  -0.089668
C    6.832172   6.407154  -0.113346
N    9.172730   5.597728   0.296347
S    9.068645   2.495176   0.732023
H    4.455086  -3.791698   1.064974
H    6.772212  -2.188057   2.859779
H    7.191598  -2.673169  -0.491442
H    2.900049   4.933810  -0.391910
H    6.578118   8.412777  -0.435166

