%chk=mol_1898.chk
# wB97XD/Def2SVP opt pop=full gfinput

C 7 H 12

1 2
C    1.785546   0.277393  -1.649958
C    4.558284   0.147115  -1.145023
C    6.073353   2.176020  -0.976062
C    8.794597   2.108764  -0.466252
C   10.541327   0.962834  -2.407587
C   10.508389   3.777128  -2.021913
C   12.702475   5.067490  -0.816003
H    1.338701  -0.741358  -3.393419
H    1.115638   2.224283  -1.850703
H    0.744854  -0.605128  -0.095979
H    5.362249  -1.728929  -0.910810
H    5.245483   4.045847  -1.200071
H    9.275853   1.825041   1.508890
H    9.744052   0.230452  -4.147514
H   12.147726  -0.108640  -1.722977
H    9.687737   4.923360  -3.509354
H   13.558634   3.919632   0.678525
H   12.100937   6.862956   0.017121
H   14.157299   5.469359  -2.230954

