%chk=mol_2572.chk
# wB97XD/Def2SVP opt pop=full gfinput

C 5 H 10 O 2

1 2
C    2.024577   0.006992  -0.055010
C    4.888136   0.034317  -0.042292
O    5.795091   2.016187   1.557588
C    8.264944   1.196083   2.287249
O    8.569549  -1.440670   1.766799
C    6.088263  -2.296679   1.112368
C    6.262685  -4.535211  -0.665032
H    1.286696  -1.517280  -1.239264
H    1.294122   1.808865  -0.767380
H    1.273883  -0.214616   1.861002
H    5.611958   0.396313  -1.951142
H    9.684771   2.257127   1.220631
H    8.531868   1.543169   4.306799
H    5.138033  -2.846438   2.870834
H    7.372294  -4.061172  -2.349326
H    4.392158  -5.181572  -1.260825
H    7.241449  -6.108407   0.257437

