%chk=mol_0339.chk
# wB97XD/Def2SVP opt pop=full gfinput

C 5 H 11 N 1

1 2
C    1.684710  -0.329587   0.208815
C    4.486550   0.033070   0.305455
C    5.800609   2.192781  -0.012982
C    4.624028   4.752189  -0.434202
C    8.652319   2.187717   0.109755
N    9.734320   2.939053  -2.305787
H    1.239150  -1.902557  -1.059305
H    0.659174   1.320654  -0.485357
H    0.972075  -0.801943   2.091379
H    5.531342  -1.708936   0.646494
H    2.595350   4.787111  -0.054519
H    4.917578   5.373021  -2.385250
H    5.480565   6.148696   0.831687
H    9.382132   0.317417   0.619188
H    9.282826   3.495408   1.586123
H    9.173429   1.672993  -3.644261
H   11.649784   2.795831  -2.203629

