%chk=mol_6954.chk
# wB97XD/Def2SVP opt pop=full gfinput

C 5 H 12 N 2

1 2
C    1.309561   0.558263   0.856235
C    3.558241   0.219265  -0.901399
C    5.879807   1.676055  -0.046695
C    7.275672   0.504425   2.179893
N    9.765387   1.628358   2.620691
C    7.256832   3.211004  -2.058630
N    5.742783   4.465763  -0.135078
H   -0.287144  -0.579409   0.195398
H    0.703148   2.534501   0.914816
H    1.759108  -0.029253   2.786401
H    2.994139   0.796690  -2.810079
H    4.030748  -1.794692  -1.027198
H    7.506484  -1.532171   1.881449
H    6.144029   0.757402   3.891683
H   10.934371   1.101219   1.182647
H   10.522826   0.841325   4.206738
H    6.495329   3.279412  -3.958825
H    9.272905   3.530065  -1.954355
H    6.896688   5.170234   1.257254

