%chk=mol_2681.chk
# wB97XD/Def2SVP opt pop=full gfinput

C 5 H 6 O 2

1 2
C    1.889726   0.000000   0.000000
C    4.138803   0.000000   0.000000
C    6.867567   0.000000   0.000000
O    7.845822   2.037163   1.494395
C   10.135055   1.029636   2.491642
C    9.475276  -1.695991   2.961144
O    7.859484  -2.356432   0.904593
H   -0.123305  -0.001020   0.010337
H    7.569222   0.250975  -1.933417
H   11.611933   1.222577   1.050329
H   10.708756   2.044362   4.196402
H   11.127841  -2.934858   3.016268
H    8.396866  -1.919357   4.711635

