%chk=mol_6625.chk
# wB97XD/Def2SVP opt pop=full gfinput

C 3 H 7 N 1 O 2 S 1

1 2
C    2.245845   0.324995   0.268001
S    5.477957  -0.240770  -0.403003
O    6.438675  -1.961139   1.498628
O    5.685619  -0.780230  -3.081463
C    6.916417   2.885725   0.065309
C    7.694549   3.365205   2.760455
N    9.589358   3.212610   0.760218
H    1.537217   1.765496  -1.026991
H    2.069496   0.950740   2.225190
H    1.211957  -1.439820  -0.005197
H    6.081573   4.399622  -1.023684
H    7.752734   1.832638   4.117279
H    7.367702   5.217345   3.566688
H   10.217390   4.958490   0.235158

