%chk=mol_0556.chk
# wB97XD/Def2SVP opt pop=full gfinput

C 5 H 11 N 1

1 2
N    1.940295  -0.976308   0.146321
C    4.695459  -1.005769   0.220644
C    5.745939   1.653529  -0.178296
C    8.636162   1.645025  -0.092672
C    9.696091   4.247538  -0.492595
C   11.115463   5.475349   1.205003
H    1.274677  -2.775365   0.320687
H    1.341498  -0.341870  -1.570986
H    5.405278  -2.284395  -1.245311
H    5.309488  -1.746560   2.053566
H    5.007680   2.925202   1.284693
H    5.103451   2.394982  -2.005925
H    9.378144   0.403230  -1.577468
H    9.278461   0.866080   1.718385
H    9.278990   5.159992  -2.287551
H   11.587574   4.645627   3.020708
H   11.834296   7.355589   0.808406

