%chk=mol_1232.chk
# wB97XD/Def2SVP opt pop=full gfinput

C 7 H 12

1 2
C    1.895357   0.052402   0.115613
C    4.429821   0.012567   0.051741
C    5.923668  -2.415316   0.027968
C    7.750712  -2.471081  -2.210016
C    9.414748  -0.110171  -2.297113
C    7.830572   2.308678  -2.285189
C    6.001770   2.385647  -0.048320
H    0.852134   1.820468   0.113988
H    0.795083  -1.676697   0.170926
H    4.678319  -4.069223  -0.064232
H    6.988415  -2.563451   1.802043
H    8.946134  -4.157530  -2.087940
H    6.678141  -2.618423  -3.977458
H   10.691107  -0.104370  -0.663653
H   10.601912  -0.156205  -3.993237
H    9.082572   3.957672  -2.216630
H    6.763500   2.435989  -4.059982
H    7.070807   2.556667   1.718233
H    4.812509   4.074609  -0.197798

