%chk=mol_0498.chk
# wB97XD/Def2SVP opt pop=full gfinput

C 4 H 12 N 2

1 2
C    2.457570  -0.481748   0.345102
N    5.195141  -0.268417   0.134435
C    5.971837   2.406188   0.059300
C    8.880673   2.707467  -0.124722
C   10.168786   2.092248   2.389030
N    9.937087   1.076671  -2.124166
H    1.923892  -2.478962   0.355023
H    1.498175   0.425453  -1.246898
H    1.779744   0.353757   2.111032
H    5.752307  -1.055733  -1.539087
H    5.287208   3.398257   1.744671
H    5.112031   3.313276  -1.596271
H    9.295563   4.677072  -0.611591
H    9.858475   0.125742   2.958045
H    9.443301   3.312028   3.895595
H   12.213583   2.402522   2.267237
H    9.690232  -0.755928  -1.565903
H   11.846296   1.329252  -2.191326

