%chk=mol_2410.chk
# wB97XD/Def2SVP opt pop=full gfinput

C 7 H 14

1 2
C    1.595741  -0.299824   0.249463
C    4.404045   0.027307   0.343250
C    5.754122   2.160335  -0.021675
C    4.550782   4.704889  -0.504519
C    8.649258   2.236585   0.065422
C    9.915960   0.058071   1.499365
C    9.743296   2.390315  -2.611148
H    1.137672  -1.950179  -0.912341
H    0.598136   1.308314  -0.571037
H    0.862339  -0.634079   2.153381
H    5.394601  -1.736337   0.712106
H    2.523673   4.740567  -0.117749
H    4.834486   5.276286  -2.471516
H    5.396302   6.142612   0.721800
H    9.193461   3.965590   1.077616
H    9.702100  -1.748394   0.511039
H    9.132555  -0.137402   3.405929
H   11.947359   0.412905   1.697957
H    9.240836   0.718965  -3.726313
H   11.809012   2.518060  -2.553077
H    9.051600   4.059699  -3.619506

