%chk=mol_1964.chk
# wB97XD/Def2SVP opt pop=full gfinput

C 5 H 4 N 2

1 2
N    1.916768   0.110247  -0.326582
C    4.099723   0.061983  -0.163197
C    6.805376   0.015420  -0.000491
C    8.300508  -1.381239  -1.983816
C    8.307633   1.468204  -1.952503
C   10.535336   2.783132  -1.144248
N   12.336189   3.826695  -0.462057
H    7.542218  -0.052553   1.913915
H    7.294872  -2.316577  -3.507313
H    9.985067  -2.383285  -1.379595
H    7.268057   2.399877  -3.457027

