%chk=mol_0717.chk
# wB97XD/Def2SVP opt pop=full gfinput

C 5 H 12 O 1

1 2
C    2.102660  -0.374128   0.030198
C    4.973362  -0.245192   0.042387
C    5.907813   2.493059   0.052024
C    8.798565   2.659034   0.020466
C    9.697735   5.390822  -0.074342
O    9.817430   1.491504   2.222658
H    1.474156  -2.344791   0.021940
H    1.324774   0.554691  -1.646840
H    1.312320   0.544317   1.707235
H    5.704384  -1.229380  -1.626884
H    5.682973  -1.249733   1.708029
H    5.175544   3.435654   1.748356
H    5.138525   3.491326  -1.593908
H    9.544516   1.642323  -1.621196
H    9.044230   6.446952   1.582230
H    9.019927   6.346456  -1.778062
H   11.765965   5.469718  -0.050796
H    9.140587   2.366731   3.689993

