%chk=mol_3121.chk
# wB97XD/Def2SVP opt pop=full gfinput

C 5 H 8 O 2

1 2
C    3.807061  -1.574595   0.212197
C    6.470876  -0.510925   0.124930
C    6.489282   2.344923   0.086039
O    4.602314   3.684267   0.117560
C    9.081476   3.587248   0.004857
C    9.124524   6.421460   0.005499
O   10.983183   2.270676  -0.058582
H    3.857233  -3.641824   0.251315
H    2.717105  -0.985228  -1.445489
H    2.799365  -0.919881   1.897172
H    7.427134  -1.197463  -1.576731
H    7.518351  -1.150730   1.790742
H    8.160895   7.137930  -1.674770
H   11.084169   7.078630  -0.025814
H    8.218419   7.136815   1.718082

