%chk=mol_3249.chk
# wB97XD/Def2SVP opt pop=full gfinput

C 5 H 8 O 2

1 2
C    1.887175  -0.111664   0.011112
C    4.762110   0.000000   0.000000
O    5.666155  -1.273430  -2.193367
C    5.672996   2.572238   0.000000
C    6.423746   4.692322   0.000000
C    7.334632   7.264561   0.000000
O    5.388592   8.898702  -0.864455
H    1.101011   0.807121   1.688527
H    1.243119  -2.077206  -0.031010
H    1.095361   0.810126  -1.665472
H    5.488124  -1.023306   1.644969
H    5.243952  -0.206774  -3.629710
H    8.966316   7.474491  -1.253002
H    7.888567   7.857802   1.901990
H    6.082896  10.596998  -0.840966

