%chk=mol_0148.chk
# wB97XD/Def2SVP opt pop=full gfinput

C 4 H 9 N 1

1 2
C    1.965051  -0.014343  -0.133793
C    4.773845   0.086927   0.025984
N    6.306828  -1.211787  -1.872435
C    6.298287   1.549538  -1.889953
C    8.626845   2.925920  -1.111272
H    1.134818   1.387154   1.140563
H    1.282746  -1.882923   0.435072
H    1.274658   0.371936  -2.044495
H    5.457983  -0.047564   1.952163
H    5.209918  -1.911704  -3.298782
H    5.343560   2.452354  -3.461015
H    9.612300   1.985460   0.446826
H    8.142414   4.841478  -0.499927
H    9.935084   3.073054  -2.705219

