%chk=mol_6035.chk
# wB97XD/Def2SVP opt pop=full gfinput

C 4 H 7 N 1 O 2

1 2
O    1.692968   0.067161   0.001077
C    4.421846   0.008164   0.025851
C    5.757164   1.910778   1.785111
N    7.604579  -0.077630   2.480946
C    5.697298  -2.019645   1.716873
C    6.917531  -4.328078   0.381649
O    8.329082  -4.263959  -1.470849
H    1.200978  -1.084778  -1.344653
H    5.163469   0.073227  -1.911156
H    4.608948   2.563678   3.381344
H    6.585186   3.558751   0.850604
H    9.163358  -0.089308   1.330840
H    4.502896  -2.614379   3.307455
H    6.424710  -6.167310   1.229342

