%chk=mol_3457.chk
# wB97XD/Def2SVP opt pop=full gfinput

C 5 H 8 O 2

1 2
C    9.333735  -1.511233  -0.455896
O    6.660245  -1.307237  -0.666847
C    5.613810   0.986815  -0.102518
C    6.744338   3.123850   0.634513
O    5.377764   5.277646   1.120456
C    6.617953   7.430101   1.856372
C    5.382771   9.574279   2.335928
H    9.869397  -3.437941  -0.979388
H    9.947575  -1.182817   1.492355
H   10.280205  -0.209136  -1.755858
H    3.580502   0.878288  -0.340491
H    8.758351   3.313181   0.893765
H    8.648029   7.278318   2.021005
H    3.342604   9.676172   2.155497
H    6.386235  11.264071   2.915828

