%chk=mol_0553.chk
# wB97XD/Def2SVP opt pop=full gfinput

C 5 H 7 N 1

1 2
N    5.060649  -1.211050   2.558935
C    4.665243  -0.054008   0.084735
C    5.602471   2.639929   0.000000
C    3.998944   4.602674  -0.160400
C    8.214942   3.124133   0.000000
C   10.426356   3.533996   0.000000
H    4.273162  -2.965377   2.567949
H    4.118791  -0.181074   3.884105
H    2.645087  -0.143770  -0.374185
H    5.645689  -1.176052  -1.355727
H    1.967507   4.329230  -0.195133
H    4.678716   6.537791  -0.250559
H   12.406544   3.890379   0.011130

