%chk=mol_4178.chk
# wB97XD/Def2SVP opt pop=full gfinput

C 5 H 11 N 1 O 1

1 2
C    2.221487  -0.269947  -0.332762
C    4.953974   0.381611  -0.242792
O    6.373007  -0.399356  -2.410383
C    6.192368   2.288761  -2.005283
C    4.667643   3.660192  -3.959789
C    8.630380   3.504875  -1.181665
N   10.480893   3.388279  -3.221265
H    1.099329   1.245500   0.516273
H    1.874382  -2.002165   0.744212
H    1.538691  -0.590426  -2.258223
H    5.765630   0.078953   1.610255
H    3.168296   2.486199  -4.764510
H    5.858208   4.279927  -5.534195
H    3.789260   5.335585  -3.122338
H    9.405129   2.548201   0.483883
H    8.294291   5.478656  -0.658494
H   10.639668   1.545116  -3.773008
H   12.207291   3.896011  -2.542116

