%chk=mol_3178.chk
# wB97XD/Def2SVP opt pop=full gfinput

C 6 H 6 O 1

1 2
C    1.818143  -0.077384  -0.522150
C    4.666169  -0.091671  -0.398581
O    5.834794  -2.094743  -0.621814
C    6.054683   2.363178   0.000000
C    4.823299   4.553654   0.353322
C    8.711637   2.363178   0.000000
C   10.960714   2.363178   0.000000
H    1.174314   1.142132  -2.060406
H    1.028276   0.534093   1.285845
H    1.142415  -1.994889  -0.905349
H    2.782168   4.709972   0.382310
H    5.859247   6.305619   0.636611
H   12.973253   2.334908  -0.003458

