%chk=mol_3302.chk
# wB97XD/Def2SVP opt pop=full gfinput

C 6 H 8 O 1

1 2
C    4.622572  -1.777231  -1.608951
O    3.859879   0.618394  -0.663955
C    5.973651   2.241177  -0.084792
C    6.658469   4.129845  -2.087883
C    5.327063   4.995907   0.272158
C    6.721113   6.444287   2.088506
C    7.882898   7.662537   3.611380
H    2.929926  -2.876711  -2.048331
H    5.723754  -2.790389  -0.182207
H    5.735886  -1.548101  -3.336123
H    7.483788   1.477161   1.077654
H    5.584386   4.120680  -3.831136
H    8.639941   4.585572  -2.329012
H    3.346459   5.499292   0.080748
H    8.908452   8.744141   4.962704

