%chk=mol_6196.chk
# wB97XD/Def2SVP opt pop=full gfinput

C 5 H 3 N 1 O 1

1 2
O    4.218266   1.619684   1.586841
C    4.313942   0.105768  -0.169886
C    5.609822  -2.425369   0.000000
C    3.837637  -4.500345   0.000000
C    2.376973  -6.210547   0.000000
C    3.205259   0.714052  -2.604591
N    2.361874   1.163221  -4.583323
H    6.737138  -2.444323   1.737962
H    6.952718  -2.585145  -1.568737
H    1.069264  -7.744778   0.001398

