%chk=mol_6830.chk
# wB97XD/Def2SVP opt pop=full gfinput

C 7 H 12

1 2
C    3.232603  -0.272234  -0.077101
C    1.552429  -2.368318   0.971225
C   -0.816796  -2.906456  -0.585588
C   -2.910216  -1.007300  -0.314715
C   -2.712022   1.440916   0.320535
C   -0.332289   2.948332   0.673479
C    1.883131   2.113300  -0.976781
H    4.347296  -1.019507  -1.658783
H    4.606982   0.241847   1.389270
H    2.687096  -4.100592   1.080545
H    1.021321  -1.919074   2.925202
H   -1.572479  -4.727943   0.062002
H   -0.349070  -3.145941  -2.589548
H   -4.802342  -1.762907  -0.605582
H   -4.456995   2.512107   0.537438
H    0.191996   2.976886   2.677799
H   -0.777471   4.908450   0.157717
H    3.277598   3.645905  -1.053579
H    1.236051   1.843258  -2.928962

