%chk=mol_4456.chk
# wB97XD/Def2SVP opt pop=full gfinput

C 5 H 7 N 1 O 1

1 2
C    2.116531   0.330891   0.078688
C    4.919222  -0.287087  -0.143978
C    5.458020  -1.628226  -2.520403
N    5.826025  -2.690139  -4.404290
C    6.481666   2.076337  -0.288486
C    7.225991   3.479893   2.081836
O    8.964786   1.865840   0.775033
H    1.731480   1.373604   1.824871
H    0.975325  -1.396508   0.096565
H    1.463517   1.500461  -1.502143
H    5.491431  -1.455316   1.468657
H    6.242370   3.169638  -2.004773
H    6.522144   2.838331   3.893762
H    7.544751   5.498385   1.958701

