%chk=mol_3915.chk
# wB97XD/Def2SVP opt pop=full gfinput

C 5 H 5 N 1 O 1

1 2
C    1.968339   0.023603  -0.286955
C    4.455993  -0.078065   0.101365
C    6.035653  -2.286304   0.370897
C    8.406749  -1.477766   0.731324
N    8.500971   1.110479   0.718304
C    6.140438   2.185922   0.339338
O    5.574295   4.405575   0.227466
H    1.015690   1.834811  -0.454630
H    0.831876  -1.671463  -0.445711
H    5.401725  -4.219796   0.292926
H   10.092857  -2.597410   1.005769
H   10.071560   2.169292   0.951439

