%chk=mol_2352.chk
# wB97XD/Def2SVP opt pop=full gfinput

C 6 H 10 O 1

1 2
C    1.916031   0.070940   0.016630
C    4.722388  -0.005707  -0.052912
C    6.197168  -2.059216  -0.200084
C    8.945907  -1.383941  -0.137232
C    8.907489   1.470509  -0.642620
O    9.303292   1.938122  -3.279431
C    6.260474   2.374157   0.126820
H    1.099462  -1.825721  -0.114480
H    1.187617   1.187485  -1.564844
H    1.261657   0.927119   1.781974
H    5.521610  -3.986377  -0.282155
H    9.715423  -1.815857   1.734164
H   10.001470  -2.418320  -1.582702
H   10.401033   2.465337   0.383879
H    7.964138   1.055658  -4.184250
H    5.546988   3.840490  -1.145117
H    6.237533   3.064607   2.077829

