%chk=mol_2741.chk
# wB97XD/Def2SVP opt pop=full gfinput

C 6 H 6 O 1

1 2
C    2.014618   0.681492  -0.568014
C    4.474890   0.557205   0.051174
C    6.130971  -1.747638   0.276259
C    4.814588  -4.141883  -0.256946
C    3.773613  -6.114190  -0.684799
C    5.764326   2.998655   0.592127
O    8.002064   3.121185   1.172462
H    0.989139   2.455416  -0.677542
H    0.927931  -1.007753  -0.992390
H    6.914527  -1.836625   2.193424
H    7.729528  -1.565562  -1.030864
H    2.856019  -7.867308  -1.062895
H    4.586101   4.711937   0.441308

