%chk=mol_6643.chk
# wB97XD/Def2SVP opt pop=full gfinput

C 4 H 6 N 2 S 1

1 2
N    1.871830   0.001871  -0.136684
C    4.428384   0.053309  -0.080710
C    5.825931   2.241593  -0.156980
S    9.007795   1.648692   0.018122
C    8.509078  -1.549953   0.175688
C    5.981191  -2.140852   0.080502
N    5.082872  -4.534700   0.119147
H    0.876833   1.610387   0.188066
H    0.983376  -1.550237   0.558981
H    5.157913   4.165467  -0.289695
H   10.100775  -2.819660   0.312636
H    3.329584  -4.853951  -0.591806
H    6.272096  -6.005493  -0.204090

