%chk=mol_4479.chk
# wB97XD/Def2SVP opt pop=full gfinput

C 5 H 11 N 1 O 1

1 2
C    3.613119  -2.448650   1.593247
C    3.528837  -0.102234  -0.067860
C    5.816861   1.617417   0.310841
N    8.172027   0.420502  -0.404401
C    8.963802   0.314054  -2.879527
C   11.409241  -1.087915  -3.261800
O    7.798295   1.254325  -4.648140
H    1.879049  -3.550342   1.356049
H    3.781436  -1.939010   3.590461
H    5.208898  -3.665502   1.093792
H    1.812569   0.968409   0.379646
H    3.385331  -0.680131  -2.051846
H    5.988958   2.175094   2.297113
H    5.580361   3.338315  -0.815417
H    9.131478  -0.554011   0.929122
H   12.303213  -1.580567  -1.465124
H   12.712169   0.110228  -4.327926
H   11.033052  -2.823912  -4.316399

