%chk=mol_3609.chk
# wB97XD/Def2SVP opt pop=full gfinput

C 7 H 12

1 2
C    5.376649  -1.648068  -1.973214
C    4.613729  -0.096697   0.325619
C    5.669367   2.618801   0.303282
C    4.586573   4.117033   2.535653
C    8.576277   2.775573   0.234742
C    9.810986   1.555245   2.408418
C   10.826260   0.566030   4.179658
H    4.411358  -3.477814  -1.944396
H    7.409975  -2.017679  -2.002316
H    4.858524  -0.680774  -3.726540
H    5.197843  -1.093792   2.045213
H    2.542400  -0.008655   0.379325
H    4.979617   3.540969  -1.424589
H    5.110726   3.275802   4.351945
H    2.519383   4.172591   2.441488
H    5.266440   6.071558   2.508838
H    9.145046   4.768781   0.171020
H    9.284678   1.930790  -1.518546
H   11.720289  -0.309821   5.757315

