%chk=mol_7001.chk
# wB97XD/Def2SVP opt pop=full gfinput

C 5 H 6 N 2

1 2
C    2.037711  -0.150252  -0.009108
C    4.303700  -0.009108   0.038872
C    6.997240   0.166409   0.092937
N    8.241398  -1.937914   0.115765
N   10.712933  -1.231875   0.233287
C   11.048378   1.413307  -0.497263
C    8.482093   2.538639   0.129824
H    0.031199  -0.301014  -0.050134
H   11.871997  -2.442698  -0.724653
H   11.421430   1.548952  -2.529644
H   12.589375   2.324476   0.532865
H    7.818836   3.889585  -1.282614
H    8.417067   3.362276   2.025031

