%chk=mol_4099.chk
# wB97XD/Def2SVP opt pop=full gfinput

C 5 H 9 N 1 O 1

1 2
C    1.857544   0.193546   0.414209
C    4.649955  -0.189502  -0.176916
N    5.211524  -2.802823  -0.991974
C    5.241269  -2.877410  -3.775106
C    5.975069  -0.265336  -4.520603
O    3.995505   1.578942  -4.533245
C    5.559083   1.412117  -2.324836
H    1.486553   2.168215   0.911207
H    1.272787  -0.990972   2.007494
H    0.649556  -0.276278  -1.200789
H    5.761737   0.216147   1.521475
H    3.892231  -4.028083  -0.316643
H    6.606426  -4.281080  -4.435263
H    3.368871  -3.357476  -4.516427
H    7.607074  -0.056522  -5.716875
H    6.876430   2.897574  -1.876385

