%chk=mol_0383.chk
# wB97XD/Def2SVP opt pop=full gfinput

C 4 H 10 N 2

1 2
C    3.997753  -0.468879   2.747889
C    4.622686   0.214219   0.034204
C    5.663755   2.880056  -0.117276
C    3.797329   5.040996   0.030784
N    8.106434   3.145222  -0.275541
N    8.973478   5.545817  -0.329001
H    3.280243  -2.405017   2.856869
H    2.559048   0.797899   3.526267
H    5.674716  -0.328586   3.952173
H    2.933743   0.081863  -1.153659
H    6.024541  -1.110195  -0.719570
H    1.863459   4.336676  -0.148759
H    4.139294   6.389825  -1.496115
H    3.989760   5.989600   1.856335
H   10.848747   5.528545  -0.801792
H    8.925271   6.323950   1.440217

