%chk=mol_0152.chk
# wB97XD/Def2SVP opt pop=full gfinput

C 4 H 7 N 1

1 2
C    3.883538  -1.604472  -2.147050
C    3.995070   0.385429  -0.584946
C    6.135752   2.104796  -0.309235
C    6.485635   4.200030  -2.205008
N    5.551146   4.722747   0.332554
H    2.206747  -2.781904  -2.224831
H    5.451482  -2.085899  -3.376733
H    2.357433   0.770309   0.601708
H    7.803416   1.310317   0.581620
H    5.125315   4.405764  -3.720209
H    8.386019   4.821825  -2.635488
H    6.939509   5.470644   1.441748

