%chk=mol_1736.chk
# wB97XD/Def2SVP opt pop=full gfinput

C 6 H 15 N 1

1 2
C    3.107050  -0.914495   0.902250
N    5.698601  -0.193206   1.492714
C    6.369794   2.360098   0.610646
C    4.748183   4.399849   1.886041
C    9.233768   2.914449   1.018222
C   10.083503   2.673528   3.778186
C   10.915304   1.258161  -0.665108
H    2.823402  -2.898386   1.413080
H    2.697357  -0.717926  -1.115108
H    1.739247   0.183511   1.993661
H    6.885160  -1.476349   0.682682
H    6.015055   2.469796  -1.432034
H    4.752075   4.214184   3.947392
H    2.782130   4.304720   1.246048
H    5.440578   6.292731   1.412986
H    9.574864   4.879008   0.439059
H    9.865656   0.740433   4.480503
H    9.009912   3.935751   5.013198
H   12.080736   3.184566   3.966082
H   10.851242  -0.732609  -0.109850
H   12.887724   1.874344  -0.541388
H   10.340336   1.400306  -2.646713

