%chk=mol_6356.chk
# wB97XD/Def2SVP opt pop=full gfinput

C 4 H 7 N 1 O 2

1 2
O    2.126150   1.865330   2.621069
N    4.745990   1.537802   2.491699
C    5.516716   2.254368   0.284442
C    8.271294   2.173110  -0.397995
C    9.385684   4.764907  -0.383822
C   11.354703   5.547820  -2.281429
O    8.752248   6.270980  -2.544932
H    1.743348   1.347620   4.347844
H    4.205718   3.006686  -1.154736
H    8.430522   1.292951  -2.265215
H    9.283318   0.981751   0.958016
H    9.369413   5.656725   1.457716
H   12.085234   4.161971  -3.597982
H   12.685940   7.010676  -1.752740

