%chk=mol_6302.chk
# wB97XD/Def2SVP opt pop=full gfinput

C 4 H 6 N 2 O 1

1 2
O    4.735162  -0.690222  -1.420942
C    5.233332   1.175107  -2.704274
N    6.838352   3.110451  -2.070138
C    7.864776   2.968457   0.140426
N    9.538355   4.640790   1.269764
C   11.416724   5.851386  -0.383860
C    9.246808   7.331892   0.631565
H    4.348468   1.406504  -4.578013
H    7.481123   1.387210   1.452273
H   11.392668   5.249262  -2.335909
H   13.243749   6.046746   0.506239
H    9.554456   8.561764   2.232258
H    7.683305   7.786862  -0.602501

