%chk=mol_5552.chk
# wB97XD/Def2SVP opt pop=full gfinput

C 4 H 10 N 2 O 1

1 2
N    1.907546   0.128029   0.042972
C    4.665904   0.041347  -0.139859
C    5.863272   1.828537   1.835094
N    7.698839  -0.216506   2.463768
C    5.747470  -2.082989   1.558911
C    6.947427  -4.348090   0.242395
O    8.559402  -5.646842   1.970399
H    1.009851  -1.280819  -0.918407
H    1.135045   1.777779  -0.586514
H    5.450084   0.182132  -2.050410
H    4.668890   2.355506   3.445953
H    6.727141   3.545674   1.071909
H    9.275494  -0.147833   1.351003
H    4.497926  -2.690044   3.105633
H    8.092733  -3.773349  -1.381522
H    5.500785  -5.667270  -0.419538
H    9.157349  -4.383333   3.175779

