%chk=mol_1497.chk
# wB97XD/Def2SVP opt pop=full gfinput

C 5 H 12 N 2

1 2
C    2.257127  -0.597342  -0.064553
C    5.137447  -0.441308  -0.216336
N    5.982212  -1.298922  -2.714119
C    6.039867   2.269693   0.342532
C    8.870072   2.491906   0.357442
C   10.244772   3.625364  -1.862306
N    9.997596   5.014181   0.509395
H    1.591301  -0.019011   1.807844
H    1.598519  -2.532668  -0.392383
H    1.355746   0.630734  -1.467448
H    5.943926  -1.723430   1.197954
H    5.266326  -0.134133  -4.072473
H    5.256783  -3.046957  -3.076795
H    5.342369   2.832397   2.213001
H    5.205987   3.592899  -1.021302
H    9.791521   1.026443   1.450762
H    9.153569   4.340663  -3.439283
H   12.100710   2.904774  -2.329371
H   11.651277   4.961589   1.504713

