%chk=mol_3455.chk
# wB97XD/Def2SVP opt pop=full gfinput

C 5 H 10 O 2

1 2
C    7.362071  -4.681211   1.891502
O    9.187338  -2.790237   1.350984
C    8.025383  -0.517483   0.470410
C    9.963675   1.523913  -0.068276
C   12.439482   1.023910  -0.367098
O    8.887439   3.900319  -0.169679
C   10.519651   6.019439  -0.446750
H    8.341856  -6.335194   2.650284
H    6.369020  -5.237149   0.164085
H    6.009159  -4.012040   3.307002
H    6.713781   0.164879   1.924724
H    6.958803  -0.908316  -1.261940
H   13.134315  -0.904272  -0.248480
H   13.846779   2.460858  -0.740754
H    9.358793   7.727752  -0.376433
H   11.479784   5.975409  -2.277762
H   11.884053   6.116855   1.106661

