%chk=mol_3139.chk
# wB97XD/Def2SVP opt pop=full gfinput

C 5 H 10 O 2

1 2
C    2.501015   5.912934   0.886244
C    5.229269   5.331655   1.529658
O    6.377901   4.143546  -0.600782
C    8.962064   3.425828  -0.128048
C   10.585244   3.192296  -2.447989
C   10.946446   5.388668  -0.695230
O   13.161886   5.349380   0.872335
H    1.550898   6.837256   2.473330
H    1.477841   4.177239   0.415078
H    2.388897   7.147549  -0.770498
H    5.318048   4.064517   3.163213
H    6.241746   7.081938   1.973328
H    9.318882   2.090245   1.386114
H    9.711813   3.558373  -4.264734
H   11.999912   1.715115  -2.489034
H   10.297005   7.222798  -1.343935
H   13.777747   3.645792   1.179189

