%chk=mol_4627.chk
# wB97XD/Def2SVP opt pop=full gfinput

C 5 H 11 N 1 O 1

1 2
C    1.709182  -0.074663   1.234407
C    4.474380  -0.136325   0.474246
C    5.637129   2.496139   0.450832
O    8.226053   2.277139  -0.280416
N    9.278329   4.708706  -0.371671
C   11.629224   4.517485  -1.000893
C   13.253443   6.816639  -1.251660
H    0.931257  -1.990524   1.265568
H    0.599005   1.047267  -0.102499
H    1.476443   0.743777   3.119673
H    4.670175  -0.999438  -1.399815
H    5.535424  -1.352307   1.774245
H    5.532173   3.349237   2.335834
H    4.642169   3.712651  -0.898962
H   12.533079   2.672678  -1.366650
H   12.164583   8.534816  -0.899415
H   14.042347   6.872046  -3.159358
H   14.806779   6.687571   0.103292

