%chk=mol_1092.chk
# wB97XD/Def2SVP opt pop=full gfinput

C 6 H 8

1 2
C    1.672162  -0.381706  -0.221041
C    4.488931  -0.054160   0.244096
C    5.231008   2.682372   0.218037
C    6.231844   3.891022   2.206010
C    6.910577   6.484482   2.070592
C    7.484733   8.676942   1.961177
H    1.176865  -2.390258  -0.218622
H    1.116526   0.409787  -2.051128
H    0.557658   0.553841   1.250961
H    5.550485  -1.044716  -1.232555
H    4.989708  -0.942917   2.047159
H    4.937836   3.697589  -1.547686
H    6.549677   2.914203   3.983958
H    7.996206  10.619751   1.865556

