%chk=mol_5801.chk
# wB97XD/Def2SVP opt pop=full gfinput

C 4 H 8 N 2 O 1

1 2
N    2.478791  -1.297713  -0.923415
C    4.452346   0.643792  -0.700956
C    4.166355   2.096198   1.783278
O    2.099032   2.665138   2.682240
N    6.501603   2.776631   2.806319
C    6.830528   5.208482   3.960942
C    6.840053   2.863823   5.496722
H    2.254916  -1.765250  -2.775970
H    0.805968  -0.510453  -0.351697
H    4.277546   2.011897  -2.243143
H    6.311213  -0.253828  -0.813074
H    5.173314   6.406965   3.987190
H    8.604735   6.100698   3.485581
H    8.620685   2.083196   6.120577
H    5.190095   2.399140   6.612624

