%chk=mol_3464.chk
# wB97XD/Def2SVP opt pop=full gfinput

C 5 H 6 O 2

1 2
C    8.948118  -2.109331  -0.128426
O    7.150913  -0.404137  -1.168550
C    7.201539   2.008325   0.004327
C    9.468888   3.714710  -0.550969
O   11.277017   3.161568  -1.883566
C    9.414181   6.165137   0.671911
C    9.380676   8.195175   1.687431
H    8.708859  -3.941269  -1.053844
H    8.627847  -2.355109   1.899836
H   10.879134  -1.460173  -0.467934
H    7.016024   1.782994   2.056230
H    5.518737   3.014453  -0.663256
H    9.375158  10.001205   2.577265

