%chk=mol_5665.chk
# wB97XD/Def2SVP opt pop=full gfinput

C 4 H 6 N 2 O 1

1 2
N    4.924589  -1.110875  -2.513147
C    4.506222   0.116237  -0.060906
C    5.350589   2.810703  -0.023452
N    4.038836   4.870788   0.489118
C    5.772263   6.781622   0.258609
C    8.092091   5.802536  -0.356327
O    7.858483   3.245869  -0.530371
H    4.563689  -2.990397  -2.338498
H    6.791298  -0.944939  -2.960388
H    5.530321  -0.925569   1.405975
H    2.491453   0.021524   0.398392
H    5.262207   8.738245   0.548531
H    9.945024   6.578420  -0.709706

