%chk=mol_5627.chk
# wB97XD/Def2SVP opt pop=full gfinput

C 6 H 9 N 1

1 2
C    1.765080   0.001512  -0.303188
C    4.558284   0.044390  -0.026607
C    6.100886   2.069156   0.021581
C    8.782824   1.428557   0.309688
N   10.048543  -0.017518  -1.652811
C    8.830709  -1.439782   0.371350
C    6.116892  -2.349893   0.180941
H    1.114315  -1.867881  -0.915289
H    1.139599   1.379689  -1.704174
H    0.862112   0.435298   1.515182
H    5.461630   4.011227  -0.106089
H    9.912899   2.452109   1.671463
H    8.983323  -0.035697  -3.262310
H   10.009350  -2.413464   1.718819
H    5.589999  -3.411579   1.878444
H    5.868998  -3.549076  -1.487290

