%chk=mol_1700.chk
# wB97XD/Def2SVP opt pop=full gfinput

C 5 H 12 N 2

1 2
C    1.495510   2.723776   1.521324
N    3.352336   1.808487  -0.285103
C    5.946703   2.796662   0.166428
C    7.426832   1.664716   2.373836
N    6.932158  -1.047985   2.597504
C    7.423033   3.466022  -2.194142
C    6.470536   5.526239  -0.503499
H    2.014807   2.264610   3.468744
H   -0.336352   1.848795   1.128091
H    1.250262   4.770916   1.359337
H    3.442004  -0.119828  -0.243529
H    6.882590   2.610694   4.133020
H    9.461216   1.956358   2.117835
H    5.133479  -1.274998   3.243412
H    8.072532  -1.768992   3.970088
H    6.506327   3.218752  -4.010698
H    9.436366   3.095901  -2.235036
H    7.840909   6.562471   0.611497
H    4.922415   6.678443  -1.191435

