%chk=mol_5480.chk
# wB97XD/Def2SVP opt pop=full gfinput

C 5 H 7 N 1 O 1

1 2
N    1.917940  -0.530541  -0.350242
C    4.528483   0.114347   0.370424
C    6.600851  -1.406429  -1.201015
O    8.241115   0.898319  -0.511247
C    5.788779   2.158313  -1.449477
C    5.493018   1.322449  -4.120888
C    6.054021  -1.140828  -3.949868
H    0.618696   0.762127   0.241356
H    1.331104  -2.232031   0.335483
H    4.863380   0.327527   2.400576
H    7.350090  -3.180315  -0.470958
H    5.679345   4.161026  -0.982998
H    4.955883   2.423782  -5.742764
H    6.093025  -2.569347  -5.394714

