%chk=mol_1109.chk
# wB97XD/Def2SVP opt pop=full gfinput

C 4 H 5 N 1 O 1

1 2
O    1.849777  -0.176311  -0.011508
C    4.340342   0.071299  -0.000076
C    5.895398   2.157028   0.007086
C    8.423114   1.268082   0.018670
C    8.331746  -1.333013   0.018217
N    5.839311  -2.036898   0.006765
H    1.141508   1.522269  -0.014683
H    5.296071   4.110570   0.004365
H   10.124076   2.403543   0.026513
H    9.814822  -2.738875   0.025020
H    5.171878  -3.826091   0.003666

