%chk=mol_1546.chk
# wB97XD/Def2SVP opt pop=full gfinput

C 5 H 12 N 2

1 2
C    4.974761  -0.929859   2.854696
C    5.245407   0.013738   0.153767
N    6.255315   2.588849   0.117995
C    4.362962   4.598743   0.163631
C    8.815005   3.132145   0.298690
C    9.676532   5.867014   0.406102
N   10.599455   1.471870   0.411620
H    4.181926  -2.838917   2.871099
H    3.720096   0.298615   3.948186
H    6.802958  -0.983829   3.819590
H    3.395706  -0.051590  -0.781950
H    6.446971  -1.269669  -0.941008
H    2.430736   3.856383   0.172929
H    4.551935   5.799191  -1.509324
H    4.574233   5.761378   1.860889
H    8.898644   6.923843  -1.189583
H   11.740093   5.985122   0.323389
H    9.041244   6.719621   2.178250
H    9.881907  -0.309254   0.341776

