%chk=mol_3884.chk
# wB97XD/Def2SVP opt pop=full gfinput

C 4 H 5 N 1 O 2

1 2
C    1.936440   2.190022  -0.543636
O   -0.210156   2.450351   1.058322
N   -2.419001   1.621309  -0.145339
C   -2.660073  -0.810522  -0.158794
O   -0.993731  -2.664703   0.508223
C    1.648162  -2.438692   0.404156
C    3.006913  -0.387413  -0.182056
H    3.320740   3.598265   0.073567
H    1.479372   2.571766  -2.526696
H   -4.437398  -1.696105  -0.776224
H    2.477941  -4.274013   0.765585
H    5.047213  -0.557583  -0.310236

