%chk=mol_1255.chk
# wB97XD/Def2SVP opt pop=full gfinput

C 6 H 15 N 1

1 2
C   -0.606753   1.422378  -0.850509
C    2.106156   0.520204  -1.132513
C    3.981010   2.707259  -0.907371
C    6.704011   1.781067  -1.210785
N    8.449419   3.913339  -0.982582
C   11.069241   3.090118  -1.279231
C   12.837646   5.336435  -0.983489
H   -1.912573  -0.174044  -1.007300
H   -1.089257   2.793148  -2.323021
H   -0.904083   2.316030   0.991256
H    2.324401  -0.408899  -2.971103
H    2.504057  -0.899226   0.322897
H    3.750124   3.625440   0.937418
H    3.560433   4.131055  -2.355015
H    6.919591   0.886508  -3.067649
H    7.117389   0.359142   0.239617
H    8.222765   4.753134   0.737031
H   11.349015   2.258506  -3.154879
H   11.549685   1.659954   0.139556
H   12.430789   6.801994  -2.388085
H   14.800732   4.735711  -1.241342
H   12.672881   6.179650   0.900020

