%chk=mol_1725.chk
# wB97XD/Def2SVP opt pop=full gfinput

C 5 H 12 N 2

1 2
C    2.860082  -0.241469   1.050423
N    5.530737   0.379438   1.278060
C    6.021196   3.118256   1.234898
C    4.745594   4.537459   3.409293
C    8.859565   3.410162   1.427423
C   10.464547   3.556238  -0.926911
N   10.062490   5.781617   0.646570
H    2.652250  -2.291879   0.856783
H    2.005491   0.637953  -0.619641
H    1.799000   0.306892   2.735341
H    6.466813  -0.419103  -0.205678
H    5.354823   3.907557  -0.564197
H    5.274622   3.742187   5.246635
H    2.684262   4.492994   3.247230
H    5.313948   6.529099   3.411919
H    9.645181   2.510747   3.094483
H    9.549372   3.594070  -2.756770
H   12.335527   2.729917  -0.891063
H   11.604771   6.140797   1.752608

