%chk=mol_5599.chk
# wB97XD/Def2SVP opt pop=full gfinput

C 4 H 4 N 2 O 1

1 2
N    2.073653  -0.090934  -0.513552
C    4.429575   0.037889  -0.016460
N    5.910005  -1.982833   0.406027
C    8.305006  -1.224694   0.878477
O   10.130010  -2.540718   1.337737
C    8.326115   1.545078   0.737844
C    5.981739   2.306127   0.196588
H    1.486232  -1.931621  -0.542748
H    5.398097  -3.810292   0.392345
H    9.990037   2.671582   1.034644
H    5.280859   4.197573  -0.052440

