%chk=mol_4181.chk
# wB97XD/Def2SVP opt pop=full gfinput

C 4 H 8 N 2 O 1

1 2
C    1.945019  -0.126820  -0.280057
C    4.698313   0.252449   0.123002
O    6.274288  -0.891648  -1.751209
C    6.246868   1.836379  -1.670159
C    8.627299   3.001150  -0.801981
N    8.467977   5.369997   0.149893
N   10.731509   1.791952  -0.942803
H    0.874055   1.329007   0.724616
H    1.365384  -1.972855   0.449868
H    1.432167  -0.036566  -2.282619
H    5.265514   0.094467   2.080570
H    5.307976   2.788102  -3.220339
H    6.852525   5.856828   1.048004
H   10.061998   5.876689   1.089068
H   10.379321   0.034563  -1.704212

