%chk=mol_5250.chk
# wB97XD/Def2SVP opt pop=full gfinput

C 4 H 8 N 2 O 1

1 2
C    5.797812   0.501514   4.720612
N    4.795180   2.305655   2.885952
N    5.821094   1.834206   0.466233
C    7.800374   3.306095  -0.407179
O    8.830350   4.970924   0.835410
C    8.555792   2.661641  -3.033464
C   10.463036   3.892080  -4.158437
H    4.973967   0.877721   6.578930
H    7.854911   0.654639   4.886095
H    5.309072  -1.438478   4.193435
H    5.393978   4.080731   3.414886
H    4.922113   0.578596  -0.672856
H    7.542823   1.183535  -4.015536
H   11.497830   5.379634  -3.192636
H   11.028291   3.432990  -6.074336

