%chk=mol_6486.chk
# wB97XD/Def2SVP opt pop=full gfinput

C 4 H 6 N 2 S 1

1 2
C    2.045572   0.260782   0.003931
C    4.849415   0.077573  -0.001720
N    6.165666   2.238305  -0.013587
S    9.198393   1.381484  -0.016724
N    8.878386  -1.755669  -0.001720
C    6.383268  -2.181065   0.006822
C    5.520344  -4.854857   0.020919
H    1.135064  -1.591849  -0.042349
H    1.390442   1.321580  -1.647860
H    1.393730   1.240586   1.706215
H    3.463188  -5.018999   0.082260
H    6.277255  -5.846548   1.672578
H    6.179801  -5.830920  -1.681006

