%chk=mol_7144.chk
# wB97XD/Def2SVP opt pop=full gfinput

C 6 H 9 N 1

1 2
C    1.889726   0.000000   0.000000
C    4.618491   0.000000   0.000000
C    6.867567   0.000000   0.000000
C    9.524522   0.000000   0.000000
C   10.747005  -2.216101  -0.199423
C   10.929439   2.481626   0.123815
N   10.845630   3.590366   2.650228
H    1.145250   1.929184   0.022715
H    1.145174  -0.984188   1.659369
H    1.145117  -0.944920  -1.682026
H    9.735113  -3.997621  -0.313638
H   12.795600  -2.303765  -0.217319
H   10.112605   3.809934  -1.241890
H   12.913538   2.229764  -0.415494
H    9.000955   3.831193   3.151194
H   11.615995   5.351270   2.584597

