%chk=mol_5579.chk
# wB97XD/Def2SVP opt pop=full gfinput

C 5 H 9 N 1 O 1

1 2
N    1.904012   0.067066  -0.270514
C    4.636216  -0.055615   0.132413
C    5.690646   2.019078   1.834130
O    8.091656   1.113672   2.730692
C    7.879251  -1.499252   2.709263
C    9.713286  -2.956741   3.651310
C    5.488540  -2.422005   1.518603
H    1.349718  -1.392785  -1.400136
H    1.458169   1.685503  -1.214451
H    5.590528   0.028440  -1.710788
H    4.481429   2.382264   3.477077
H    5.964221   3.795458   0.811978
H    9.568174  -5.000272   3.641143
H   11.390759  -2.115775   4.476213
H    5.784584  -4.006106   0.220569
H    4.143092  -2.983745   2.987185

