%chk=mol_0677.chk
# wB97XD/Def2SVP opt pop=full gfinput

C 5 H 12 O 1

1 2
C    1.867295  -0.108111   0.018425
C    4.740076  -0.049832   0.024170
C    5.744030   2.658882   0.002116
C    8.628470   2.709716   0.011471
C    9.641666   5.403936   0.010318
O   12.327194   5.367672  -0.005650
H    1.191038  -2.062239   0.040365
H    1.110970   0.814415  -1.671425
H    1.103184   0.854648   1.681818
H    5.444414  -1.075065  -1.632326
H    5.436137  -1.044225   1.702813
H    5.025594   3.677860   1.658329
H    5.036649   3.647776  -1.676697
H    9.371398   1.698883  -1.638260
H    9.357205   1.701320   1.669667
H    9.010196   6.447481   1.681856
H    9.008513   6.428886  -1.670915
H   12.877539   4.487948   1.511101

