%chk=mol_4807.chk
# wB97XD/Def2SVP opt pop=full gfinput

C 4 H 10 N 2 O 1

1 2
C    3.043669   4.088347   2.245013
C    4.047642   1.633989   1.137445
N    6.529212   1.982134   0.011905
O    6.461465   3.250669  -2.317655
C    8.680590   2.475636   1.381881
N   10.690842   3.479609   0.441497
C   12.740723   3.836390   2.250758
H    1.162068   3.793795   3.051019
H    2.903111   5.560651   0.798674
H    4.280740   4.792553   3.746250
H    2.731259   0.925758  -0.296441
H    4.154166   0.190711   2.619330
H    8.253133   3.654409  -2.607066
H    8.500480   1.919905   3.386881
H   12.943453   5.846114   2.686321
H   14.513191   3.181222   1.407071
H   12.480356   2.803787   4.028386

