%chk=mol_5988.chk
# wB97XD/Def2SVP opt pop=full gfinput

C 4 H 7 N 1 O 2

1 2
O    2.658089   0.313600   1.756104
C    4.581320   0.110360   0.467764
C    5.727382  -2.444191  -0.101818
C    7.568769  -2.394907  -2.301800
C    9.226494  -0.071847  -2.088166
O    7.645360   2.102963  -2.287173
N    5.899083   2.190004  -0.277771
H    4.205056  -3.790375  -0.494881
H    6.706638  -3.066137   1.615640
H    8.709483  -4.120321  -2.324684
H    6.495348  -2.314272  -4.072927
H   10.293546  -0.017329  -0.312712
H   10.580406  -0.012302  -3.650611
H    5.083647   3.897125   0.028421

