%chk=mol_5904.chk
# wB97XD/Def2SVP opt pop=full gfinput

C 6 H 7 N 1

1 2
C    1.942468  -0.039476   0.137364
C    4.767344   0.082808  -0.024056
C    6.013335   2.393943  -0.176954
C    8.637712   2.414352  -0.355930
C    9.941528   0.133868  -0.391721
C    8.557096  -2.078434  -0.246326
N    6.011861  -2.154571  -0.066651
H    1.116564   1.820222   0.508903
H    1.376458  -1.304667   1.672616
H    1.169967  -0.756420  -1.642021
H    4.968014   4.159684  -0.153956
H    9.654686   4.191696  -0.469125
H   11.984341   0.084622  -0.532374
H    9.484252  -3.910051  -0.273065

