%chk=mol_4155.chk
# wB97XD/Def2SVP opt pop=full gfinput

C 4 H 8 N 2 O 1

1 2
C    2.049521  -0.002494   0.232058
C    4.849547   0.066008  -0.145490
N    6.021839   2.172259  -0.628599
N    8.566620   2.061389  -0.917368
C    9.914769   0.045920   0.387847
C    8.588862  -2.399196  -0.318797
O    5.922591  -2.250437   0.177729
H    1.347224  -1.945284   0.179430
H    1.122951   1.073497  -1.269102
H    1.588296   0.836015   2.062636
H    9.364802   3.783685  -0.567334
H   11.900153  -0.001984  -0.185231
H    9.822060   0.362355   2.432115
H    9.347908  -3.965590   0.798919
H    8.845373  -2.866885  -2.320621

