%chk=mol_4599.chk
# wB97XD/Def2SVP opt pop=full gfinput

C 4 H 7 N 1 O 2

1 2
C    0.035640   0.822636  -0.096395
C    2.743863   0.108924  -0.420105
C    4.665016   1.734447  -0.187688
O    7.170207   0.957297  -0.476797
C    8.859376   2.725930  -1.297713
N    8.321825   5.029638  -1.893165
O   10.538095   6.256033  -2.665610
H   -0.829250  -0.346614   1.373510
H   -0.991747   0.511530  -1.863894
H   -0.190541   2.806300   0.444010
H    3.141519  -1.852952  -0.878817
H    4.446696   3.712953   0.283723
H   10.763577   1.886589  -1.394864
H    9.924407   7.936585  -3.114382

