%chk=mol_4718.chk
# wB97XD/Def2SVP opt pop=full gfinput

C 4 H 6 N 2 O 1

1 2
C    2.438937   0.400603  -1.671992
C    4.400322  -0.329171  -0.260234
N    6.782605   0.670210  -0.325713
C    8.924364   0.084830   1.023721
N    9.179912  -1.629019   2.748285
C   11.277148   1.631911   0.424659
O   11.175349   3.282076  -1.190244
H    0.614312  -0.517161  -1.478106
H    2.592307   1.915804  -3.044802
H    4.140900  -1.857714   1.086782
H    7.032805   2.104682  -1.593965
H    7.494295  -2.538998   2.989849
H   12.969851   1.137861   1.530508

