%chk=mol_0797.chk
# wB97XD/Def2SVP opt pop=full gfinput

C 4 H 10 O 2

1 2
C    1.860284  -0.254678  -0.122246
C    4.684348   0.070581   0.301090
O    6.030532  -1.225261  -1.668118
C    5.566982   2.844680   0.305607
C    4.420410   4.422583   2.413539
O    8.259218   2.887917   0.595906
H    0.755985   0.523057   1.442371
H    1.388514  -2.261171  -0.316038
H    1.262375   0.667281  -1.877556
H    5.240097  -0.845426   2.072727
H    5.360983  -0.649707  -3.282246
H    5.164433   3.718716  -1.529318
H    4.818197   3.582694   4.262523
H    2.375631   4.619946   2.198640
H    5.256368   6.316164   2.431303
H    8.885700   1.406202  -0.315773

