%chk=mol_1459.chk
# wB97XD/Def2SVP opt pop=full gfinput

C 5 H 8 N 2

1 2
C    5.832432  -2.072444  -1.047154
C    4.716643   0.308460   0.117314
N    6.622337   2.316653   0.138876
C    6.461465   4.039422  -2.002769
C    5.539279   4.836112   0.586363
C    6.965096   6.704691   1.949574
N    8.071342   8.260805   3.031877
H    4.442104  -3.603897  -1.004503
H    7.504329  -2.704935  -0.003477
H    6.376900  -1.760488  -3.019329
H    4.158456  -0.102007   2.069836
H    2.988545   0.822636  -0.909261
H    5.076693   3.675234  -3.465777
H    8.252000   4.766116  -2.685282
H    3.510412   4.944639   0.860770

