%chk=mol_2233.chk
# wB97XD/Def2SVP opt pop=full gfinput

C 5 H 8 O 2

1 2
C   -3.308249   1.247144   0.409825
O   -2.947670  -1.328099  -0.707532
C   -0.452344  -1.173312   0.429932
C    1.960515  -1.837003  -0.885167
O    3.680657   0.083053   0.050040
C    2.093571   2.062390   1.109515
C   -0.455726   1.686335  -0.099532
H   -4.601181   2.379467  -0.734404
H   -3.943802   1.165489   2.378296
H   -0.504954  -1.795183   2.415240
H    2.684148  -3.701369  -0.367816
H    1.859358  -1.685881  -2.946726
H    2.067644   1.867692   3.172094
H    2.931135   3.890776   0.632000
H   -0.261935   2.247640  -2.099561

