%chk=mol_2667.chk
# wB97XD/Def2SVP opt pop=full gfinput

C 6 H 12 O 1

1 2
C    5.521496  -2.279463  -0.951496
C    4.475703   0.068616   0.332837
C    6.388522   2.165929   0.434675
O    8.595892   1.605814   1.904863
C    6.834270   3.805776  -1.847718
C    5.515317   4.882769   0.434996
C    6.790088   6.848519   1.999670
H    4.084737  -3.766111  -1.011608
H    7.167429  -3.017647   0.062588
H    6.106934  -1.866634  -2.893001
H    3.889000  -0.406027   2.261530
H    2.774156   0.682834  -0.677278
H    8.189657   1.514540   3.695567
H    5.716006   3.466098  -3.529479
H    8.761867   4.378061  -2.240157
H    3.504119   5.245691   0.282231
H    8.847528   6.633487   2.019909
H    6.110600   6.752823   3.950491
H    6.356718   8.730800   1.260145

