%chk=mol_6846.chk
# wB97XD/Def2SVP opt pop=full gfinput

C 5 H 12 N 2

1 2
C    1.826685   0.128974   0.033637
C    4.681116  -0.153106   0.028762
N    5.962407   1.791064   1.609366
C    7.871125  -0.127783   2.364860
C    5.933381  -2.230274   1.717497
C    4.521359  -3.408140   3.911015
N    7.142012  -4.145473   0.098322
H    0.947055  -1.466050  -0.950287
H    1.260712   1.860095  -0.951420
H    1.042033   0.204317   1.946890
H    5.379483  -0.109869  -1.928428
H    4.898907   2.403562   3.097374
H    9.577169  -0.053593   1.189885
H    8.455012  -0.008655   4.346200
H    3.704714  -1.967092   5.151941
H    5.781145  -4.573232   5.069927
H    2.974334  -4.611688   3.245926
H    8.191434  -3.411390  -1.345126
H    5.893262  -5.358810  -0.726108

