%chk=mol_4827.chk
# wB97XD/Def2SVP opt pop=full gfinput

C 5 H 10 N 2

1 2
C   -3.229447   1.573972   0.974532
C   -2.182785  -0.457635  -0.700540
N   -0.743758  -2.604156   0.365813
C    1.869468  -2.499749  -0.608227
C    3.213933   0.091708  -0.240128
N    1.605171   2.169595   0.707929
C   -0.892291   2.104966  -0.546622
H   -4.968581   2.484196   0.385429
H   -3.072203   1.364363   3.003417
H   -3.202859  -0.877589  -2.432871
H   -0.660856  -2.426276   2.282071
H    2.978567  -3.989363   0.305474
H    1.827535  -2.950770  -2.632067
H    4.783936  -0.145207   1.091638
H    4.054672   0.675785  -2.041962
H    1.367708   1.910192   2.601605
H   -1.073950   3.327487  -2.186149

