%chk=mol_1609.chk
# wB97XD/Def2SVP opt pop=full gfinput

C 7 H 12

1 2
C    1.537179   1.893789   1.742668
C    3.406515   1.357844  -0.371275
C    5.945437   2.483440   0.180507
C    7.569374   3.447843  -1.946116
C    6.384818   5.288455  -0.122039
C    7.996282   6.568461   1.728400
C    7.243849   7.400432   3.999700
H   -0.270288   0.965877   1.358694
H    1.191869   3.925812   1.925159
H    2.248869   1.207762   3.560036
H    2.642895   2.083518  -2.155214
H    3.620148  -0.690430  -0.593544
H    6.889242   1.508436   1.718763
H    6.827165   3.400430  -3.855948
H    9.585050   3.094615  -1.840423
H    4.840496   6.433591  -0.841344
H    9.959405   6.875391   1.197538
H    5.309186   7.159001   4.631435
H    8.557361   8.337869   5.264815

