%chk=mol_5495.chk
# wB97XD/Def2SVP opt pop=full gfinput

C 5 H 9 N 1 O 1

1 2
N    0.736540   2.041792  -1.464481
C    1.984553  -0.337467  -0.796274
C    3.162948  -1.880523  -2.858400
C    4.823016  -0.549325  -0.972302
O    5.981777  -2.103662   0.944939
C    8.313907  -2.974297   0.225784
C    9.739025  -4.370767   1.763455
H    0.711558   3.231281   0.053574
H   -1.110913   1.727777  -1.917448
H    1.086687  -1.377421   0.733837
H    3.131730  -1.148613  -4.769480
H    3.008179  -3.917572  -2.734774
H    5.826479   1.134195  -1.584403
H    8.899986  -2.458212  -1.663847
H    9.091359  -4.855424   3.646302
H   11.578843  -5.050387   1.167265

