%chk=mol_4951.chk
# wB97XD/Def2SVP opt pop=full gfinput

C 4 H 8 N 2 O 1

1 2
C    6.043892  -2.150206   1.389780
C    4.888967   0.303660   0.514100
O    2.578796   0.498037   0.244738
N    6.542988   2.323947   0.023489
N    5.400119   4.614144  -0.797880
C    9.144082   2.293750   0.250710
C   10.687592   4.240394  -0.233476
H    7.059034  -1.872265   3.167408
H    7.304132  -2.906153  -0.062115
H    4.539595  -3.531407   1.719707
H    4.328455   5.238756   0.685385
H    4.075232   4.104277  -2.116796
H    9.992494   0.533375   0.873564
H    9.986825   6.059596  -0.869709
H   12.715230   4.047397  -0.006161

