%chk=mol_5188.chk
# wB97XD/Def2SVP opt pop=full gfinput

C 4 H 8 N 2 O 1

1 2
C    2.212775  -0.950721  -0.030349
N    4.807086  -0.147966  -0.384333
C    5.512992   2.110333   0.246061
N    4.034565   4.079768   1.177904
O    1.771543   4.430180  -0.154636
C    8.312962   2.487125  -0.080087
C    9.667234   4.350074   0.968050
H    2.140493  -3.017704  -0.080030
H    1.000648  -0.258420  -1.555112
H    1.451310  -0.376093   1.805407
H    4.988707   5.746203   1.277795
H    0.522509   3.628501   0.937739
H    9.241007   1.050083  -1.217758
H    8.873511   5.778537   2.198205
H   11.693852   4.433751   0.646362

