%chk=mol_2542.chk
# wB97XD/Def2SVP opt pop=full gfinput

C 5 H 4 O 2

1 2
C    2.069364  -0.058619   0.203183
C    4.544300  -0.017159  -0.277431
O    6.005965  -2.105665  -0.807877
C    8.425647  -1.179813  -1.174427
C    8.712053   1.316421  -0.939288
C    6.168501   2.264402  -0.329757
O    5.580607   4.449512   0.040572
H    1.050650   1.675620   0.605374
H    1.029334  -1.822074   0.201369
H    9.825234  -2.590229  -1.613562
H   10.370326   2.467793  -1.130188

