%chk=mol_2200.chk
# wB97XD/Def2SVP opt pop=full gfinput

C 6 H 10 O 1

1 2
C    1.133193   2.020098  -0.689599
C   -1.079279   0.425283   0.109642
C    1.522099  -0.716263  -0.018160
C    3.030988  -1.609574   2.229215
C    2.874500  -0.278753   4.803306
C    2.501393  -2.929397   5.862705
O    2.164001  -3.965496   3.355719
H    1.271143   2.549845  -2.664684
H    1.794597   3.458199   0.610174
H   -2.434307  -0.133812  -1.323205
H   -1.916296   0.771197   1.945284
H    1.863648  -2.025654  -1.562085
H    5.004921  -1.847207   1.622746
H    1.258633   0.974494   5.087389
H    4.604563   0.674613   5.405486
H    4.149291  -3.755415   6.799310
H    0.818856  -3.185549   7.034883

