%chk=mol_2630.chk
# wB97XD/Def2SVP opt pop=full gfinput

C 5 H 8 O 2

1 2
C    4.142809  -0.945317  -2.732997
C    4.687579   0.164992  -0.140652
C    6.237533   2.575281  -0.382764
C    4.887285   4.969205  -1.303741
C    5.508722   5.926540   1.363551
O    5.203361   7.839170   2.574676
O    6.621317   3.732228   2.089527
H    3.061697  -2.698680  -2.551546
H    5.899291  -1.368823  -3.740826
H    3.048090   0.369933  -3.894915
H    5.732805  -1.225790   0.983754
H    2.903243   0.532128   0.845766
H    8.068942   2.256465  -1.302815
H    2.864598   4.812150  -1.677075
H    5.840785   6.006343  -2.810155

