%chk=mol_0140.chk
# wB97XD/Def2SVP opt pop=full gfinput

C 4 H 9 N 1

1 2
C   -1.509003  -1.891767  -0.234874
C   -2.244239   0.797030   0.431670
C    0.041385   2.297529  -0.407501
N    2.152549   0.693945   0.361467
C    1.359601  -1.931791  -0.003742
H   -2.427485  -3.273951   0.998134
H   -2.061219  -2.303576  -2.190041
H   -2.519288   0.972264   2.478867
H   -3.983165   1.395393  -0.511341
H    0.039457   2.554192  -2.463201
H    0.129938   4.154846   0.493483
H    3.727976   1.087991  -0.671382
H    2.215704  -2.744581  -1.703569
H    1.957983  -3.065362   1.619609

