%chk=mol_6169.chk
# wB97XD/Def2SVP opt pop=full gfinput

C 4 H 6 N 2 O 1

1 2
O    5.135766  -1.361869  -1.976389
C    4.533926  -0.169282   0.358935
C    5.362910   2.501619   0.164954
N    3.929686   4.538158   0.205168
C    5.551562   6.541722  -0.055993
C    8.002593   5.717839  -0.283780
N    7.858464   3.142161  -0.150857
H    4.129751  -0.485716  -3.248345
H    5.527732  -1.151580   1.881411
H    2.498048  -0.315301   0.686481
H    4.866291   8.468657  -0.074852
H    9.773550   6.704125  -0.531939
H    9.302403   1.898287  -0.304246

