%chk=mol_5953.chk
# wB97XD/Def2SVP opt pop=full gfinput

C 5 H 9 N 1 O 1

1 2
O    1.917562   0.098322  -0.132054
C    4.593641  -0.027571  -0.102253
C    5.608253  -2.152700   1.583439
C    7.087720  -0.536096   3.462394
C    8.503881   1.488462   1.866294
C    5.699830   2.215458   1.359242
N    5.324795   1.623483   4.177863
H    1.273600  -1.615243  -0.256152
H    5.300039  -0.142637  -2.042964
H    6.865092  -3.421652   0.538591
H    4.122022  -3.261554   2.499484
H    8.094397  -1.453388   5.007737
H    9.610373   0.813735   0.256511
H    9.629969   2.867622   2.926184
H    5.276267   4.138141   0.754549
H    6.099752   2.936540   5.356788

