%chk=mol_0477.chk
# wB97XD/Def2SVP opt pop=full gfinput

C 5 H 11 N 1

1 2
C    1.777363  -1.164997   0.483468
N    4.226165  -0.544808  -0.652390
C    5.078374  -2.655046  -2.229310
C    4.082867   1.771751  -2.179138
C    3.657716   4.078785  -0.581299
C    1.741950   5.707275  -0.891233
H    1.180304   0.293909   1.825060
H    1.908359  -2.922178   1.572649
H    0.289771  -1.396319  -0.939610
H    5.254044  -4.383296  -1.102447
H    6.956800  -2.269920  -3.011543
H    3.781248  -3.030951  -3.800882
H    2.636244   1.604226  -3.654334
H    5.894150   2.062428  -3.148926
H    5.028013   4.413966   0.913890
H    0.330872   5.444131  -2.355185
H    1.546590   7.338147   0.337241

