%chk=mol_5486.chk
# wB97XD/Def2SVP opt pop=full gfinput

C 5 H 9 N 1 O 1

1 2
N    1.644553  -0.188273  -1.390687
C    4.206549  -0.028686  -0.279944
C    6.273645  -1.321467  -1.786623
C    6.109976   1.502143  -1.774283
C    4.321577  -0.011924   2.645106
C    3.271551   2.122767   4.219702
O    1.927294  -0.205734   3.928174
H    0.583888   1.274715  -0.721856
H    0.774372  -1.757332  -0.679281
H    5.750134  -2.301951  -3.508182
H    7.817835  -2.199830  -0.770989
H    7.544977   2.540699  -0.745516
H    5.480924   2.431133  -3.490078
H    5.882812  -1.056357   3.475150
H    2.537619   3.772479   3.260080
H    4.131073   2.497878   6.037561

