%chk=mol_6665.chk
# wB97XD/Def2SVP opt pop=full gfinput

C 4 H 6 N 2 S 1

1 2
N    4.770160  -1.379217  -2.529153
C    4.605130  -0.150611  -0.049738
C    5.611636   2.508139  -0.061397
N    4.222026   4.552558   0.256247
C    5.735546   6.676081   0.152822
C    8.274695   6.233450  -0.202220
S    8.808542   3.047316  -0.422335
H    4.146021  -3.191426  -2.370416
H    6.619011  -1.474912  -3.056670
H    5.629626  -1.281858   1.351268
H    2.618688  -0.115311   0.534074
H    4.877364   8.522684   0.354513
H    9.794564   7.587383  -0.337165

