%chk=mol_0119.chk
# wB97XD/Def2SVP opt pop=full gfinput

C 3 H 3 N 1 O 1

1 2
O    1.818370   0.142429   0.000000
N    4.455785  -0.091274  -0.000000
C    5.441353   2.130628   0.000000
C    8.151561   2.064545   0.000000
C   10.421537   2.020949   0.000000
H    1.268668  -1.618305  -0.000000
H    4.415269   3.939758   0.000000
H   12.433623   1.962405  -0.000000

