%chk=mol_4630.chk
# wB97XD/Def2SVP opt pop=full gfinput

C 4 H 8 N 2 O 1

1 2
C    2.516454  -1.396508   1.571666
C    4.081279  -0.383274  -0.141219
C    4.771275   2.357074  -0.266300
O    7.445634   2.542834   0.121906
N    8.060664   5.117756   0.062777
C    8.773848   6.048125   2.366958
N    8.348035   5.064598   4.549270
H    2.104191  -3.406968   1.555604
H    1.633347  -0.262124   3.036355
H    4.935171  -1.600938  -1.559156
H    3.768511   3.450564   1.180833
H    4.286447   3.105273  -2.136014
H    9.211999   5.585180  -1.405295
H    9.781846   7.865928   2.219918
H    7.429232   3.383063   4.233421

