%chk=mol_3682.chk
# wB97XD/Def2SVP opt pop=full gfinput

C 5 H 8 O 2

1 2
O    5.672750   5.926162  -2.044740
C    4.467955   4.321124  -0.884883
C    5.631781   2.068872   0.395104
C    8.472852   1.902822   0.052043
C   10.128989   3.789713   1.511838
C   11.498662   1.439404   2.464808
O    9.503754  -0.185892   1.522515
H    2.394926   4.468805  -0.711841
H    4.727339   0.383520  -0.396880
H    5.131457   2.166628   2.401861
H    9.020362   1.686921  -1.937876
H    9.159711   4.863909   2.987865
H   11.262352   5.059874   0.343873
H   13.301083   1.019999   1.542716
H   11.701165   1.303325   4.515765

