%chk=mol_1077.chk
# wB97XD/Def2SVP opt pop=full gfinput

C 4 H 9 N 1 O 1

1 2
N    1.865462   0.037379  -0.079104
C    4.614560   0.017310   0.048793
C    5.668668   2.113640   1.683160
C    8.325075   1.169646   2.186583
O    8.212863  -1.538615   2.231181
C    5.771866  -2.301214   1.314739
H    1.254438  -1.401364  -1.205230
H    1.263301   1.669857  -0.905670
H    5.389008   0.201161  -1.866161
H    4.627505   2.246450   3.473373
H    5.635579   3.974566   0.782384
H    9.614246   1.721900   0.664390
H    9.085803   1.865859   3.977874
H    5.981456  -3.894329   0.012151
H    4.660840  -2.930096   2.946934

