%chk=mol_4376.chk
# wB97XD/Def2SVP opt pop=full gfinput

C 5 H 13 N 1 O 1

1 2
C    2.594178  -1.096816   0.187234
C    5.449422  -0.793798   0.326545
C    6.272568   1.842407  -0.536682
C    9.124411   2.308943  -0.261708
N   10.659322   0.592467  -1.835397
C    9.795093   5.053317  -0.976913
O   12.470530   5.372170  -0.877816
H    2.045326  -2.996803   0.791644
H    1.912932  -0.816305  -1.746296
H    1.641832   0.267812   1.416331
H    6.324857  -2.247754  -0.858011
H    6.073070  -1.123744   2.274248
H    5.257162   3.260911   0.585796
H    5.697127   2.129268  -2.508668
H    9.699058   1.999179   1.705742
H    9.990661   0.615597  -3.644979
H   10.421934  -1.218193  -1.217683
H    8.930279   6.398632   0.333707
H    9.168970   5.508117  -2.896780
H   13.140645   3.733362  -1.425024

