%chk=mol_6642.chk
# wB97XD/Def2SVP opt pop=full gfinput

C 5 H 6 N 2

1 2
C    1.944831  -0.032617   0.093617
C    4.769556   0.090461  -0.009864
C    6.014469   2.382359  -0.130712
C    8.612313   2.278065  -0.250351
N    9.932628   0.107695  -0.266149
C    8.546891  -2.010329  -0.156942
N    6.015792  -2.136033  -0.030973
H    1.108986   1.829463   0.434807
H    1.346430  -1.288453   1.625656
H    1.208196  -0.762410  -1.696785
H    5.023062   4.170607  -0.128747
H    9.738250   3.991102  -0.341814
H    9.563243  -3.788901  -0.173571

