%chk=mol_1409.chk
# wB97XD/Def2SVP opt pop=full gfinput

C 5 H 10 N 2

1 2
C    2.040583  -0.122435   1.677264
C    4.632701   0.663313   0.878326
C    5.294333   3.060827   0.408729
N    7.645454   3.884672  -0.306721
C    8.513632   6.277689  -0.829325
C   11.301394   6.527662  -1.414063
N    7.181054   8.319557  -0.910602
H    1.251131  -1.449193   0.302243
H    0.748502   1.485476   1.838552
H    2.127737  -1.065031   3.515760
H    6.014053  -0.844235   0.688692
H    3.898221   4.553050   0.608227
H    8.951708   2.483006  -0.420048
H   12.405844   5.444698  -0.043369
H   11.889911   8.507037  -1.336736
H   11.662274   5.787343  -3.309307
H    5.336851   7.915307  -0.523586

