%chk=mol_5115.chk
# wB97XD/Def2SVP opt pop=full gfinput

C 6 H 11 N 1

1 2
C    2.021554  -0.163990  -0.015704
C    4.827551   0.230754  -0.107752
C    6.534541  -1.116885  -2.092966
C    8.468222  -0.547170   0.048377
C    8.642776   2.326858   0.213898
C    5.818750   2.935482   0.102215
N    6.326444  -1.279515   1.839724
H    1.206552   0.615351   1.720407
H    1.529922  -2.173620  -0.097094
H    1.096514   0.765339  -1.616906
H    6.822667  -0.153106  -3.898732
H    6.133182  -3.118332  -2.451031
H   10.187590  -1.676376   0.154126
H    9.505530   2.963790   1.982682
H    9.678554   3.143427  -1.378990
H    5.337607   4.086174  -1.547950
H    5.170253   3.895557   1.816707
H    5.925558  -3.166501   1.853519

