%chk=mol_3080.chk
# wB97XD/Def2SVP opt pop=full gfinput

C 6 H 14 O 1

1 2
C    2.870494  -0.917594  -1.520058
C    5.279479  -1.005202   0.059224
C    6.837993   1.432639  -0.164709
O    5.292783   3.520276   0.581847
C    9.269069   1.421282   1.455958
C   11.042482  -0.762429   0.791587
C   10.695718   3.931405   1.184499
H    1.855957  -2.713685  -1.366971
H    3.308967  -0.597059  -3.515533
H    1.599974   0.582508  -0.880593
H    6.392339  -2.636036  -0.555844
H    4.745726  -1.317630   2.037257
H    7.337769   1.736318  -2.152984
H    4.830990   3.271929   2.343544
H    8.736563   1.245518   3.454041
H   11.497075  -0.770744  -1.227698
H   10.203595  -2.589756   1.276000
H   12.819221  -0.617525   1.844770
H   11.251316   4.264885  -0.782366
H   12.412477   3.930574   2.341219
H    9.536465   5.528545   1.804481

