%chk=mol_6764.chk
# wB97XD/Def2SVP opt pop=full gfinput

C 7 H 10

1 2
C    3.505877  -0.479764   0.483486
C    1.668364  -2.627778   1.163051
C   -0.165710  -1.617870  -0.878194
C   -2.744978  -1.023684  -0.002457
C   -2.854545   1.360376   0.832179
C   -0.387677   2.744336   0.629808
C    1.314267   0.917500  -0.845463
H    5.004751  -1.069320  -0.819007
H    4.367705   0.500834   2.084273
H    2.394567  -4.534492   0.829382
H    0.972680  -2.523691   3.112436
H   -0.085869  -2.629365  -2.681559
H   -4.303984  -2.343676  -0.026947
H   -4.544414   2.230519   1.586897
H    0.367363   3.165367   2.509027
H   -0.637121   4.516294  -0.407614
H    1.799983   1.645687  -2.723814

