%chk=mol_0185.chk
# wB97XD/Def2SVP opt pop=full gfinput

C 4 H 5 N 1

1 2
N    1.879182   0.137175  -0.353284
C    4.062987   0.058430  -0.189237
C    6.767808  -0.038985   0.010828
C    8.266777  -1.422832  -1.981397
C    8.359884   1.410397  -1.858754
H    7.478024  -0.145528   1.933020
H    7.268926  -2.281107  -3.553630
H    9.922895  -2.466735  -1.380105
H   10.079138   2.288080  -1.174635
H    7.424942   2.464675  -3.348217

