%chk=mol_6065.chk
# wB97XD/Def2SVP opt pop=full gfinput

C 4 H 5 N 1 O 2

1 2
O    1.696539  -0.208607  -0.006860
C    4.017577  -0.150649  -0.016100
C    5.551071   2.309472  -0.075646
O    8.237845   2.239514  -0.005329
C    9.280974  -0.125780   0.008920
C    8.004464  -2.301290   0.013493
N    5.428068  -2.324080   0.008371
H    4.928840   3.451301   1.535138
H    5.012877   3.312577  -1.807032
H   11.324637  -0.020485   0.026078
H    8.948723  -4.121738   0.031010
H    4.457127  -3.972960   0.032106

