%chk=mol_1818.chk
# wB97XD/Def2SVP opt pop=full gfinput

C 5 H 10 N 2

1 2
C    1.712489   0.425642   0.406953
N    4.411849  -0.135342   0.310595
C    5.807771   1.843976   0.073246
N    8.427290   1.941486  -0.070884
C    9.811496  -0.458410   0.069523
C    9.734924   4.215620  -0.263371
C   12.224260   4.641281  -0.363432
H    0.704282  -1.230401   1.125785
H    0.986399   0.840928  -1.484871
H    1.285392   2.007494   1.672559
H    4.944185   3.745456  -0.047262
H    8.574481  -2.116210   0.029423
H   10.910807  -0.545299   1.821696
H   11.103332  -0.642753  -1.538483
H    8.484209   5.849345  -0.335502
H   13.602344   3.127988  -0.299389
H   12.943055   6.556669  -0.513363

