%chk=mol_3634.chk
# wB97XD/Def2SVP opt pop=full gfinput

C 6 H 8 O 1

1 2
O    1.876177  -0.055274   0.478063
C    4.144075   0.031105   0.027684
C    5.557477   2.421911  -0.011414
C    8.035928   2.611469  -0.467197
C    8.882714   5.301060  -0.334708
C    6.390808   6.767487  -0.361939
C    4.344348   4.910756   0.490176
H    5.255404  -1.686127  -0.372144
H    9.305654   1.053295  -0.839473
H    9.943134   5.634351   1.409641
H   10.065475   5.815689  -1.949347
H    5.984687   7.415871  -2.291274
H    6.465301   8.449967   0.840947
H    2.603022   5.184218  -0.589462
H    3.932331   5.125296   2.506230

