%chk=mol_5323.chk
# wB97XD/Def2SVP opt pop=full gfinput

C 5 H 7 N 1 O 1

1 2
C    2.224718  -0.121982  -1.129319
O    4.784541  -0.293021  -0.305852
C    5.963579   2.010971  -0.233854
C    8.481847   2.271734  -0.054821
C   10.270737   0.074304   0.060906
C    9.527962   4.756837   0.028818
N   10.368095   6.780488   0.092502
H    1.447795  -2.035651  -1.211314
H    2.115605   0.707835  -3.022504
H    1.096438   0.981032   0.210156
H    4.694533   3.620016  -0.297481
H    9.304067  -1.752853  -0.017877
H   11.360240   0.126196   1.820203
H   11.596720   0.142353  -1.526955

