%chk=mol_2992.chk
# wB97XD/Def2SVP opt pop=full gfinput

C 5 H 12 O 2

1 2
C    1.737962  -0.548682   0.657379
C    4.573043  -0.404364   0.069712
C    5.334111  -2.664722  -1.563163
C    5.239984   2.141834  -1.174144
O    4.534379   4.154620   0.498604
C    8.057320   2.450389  -1.791725
O    8.462628   4.934547  -2.786137
H    1.162956   0.949720   1.963010
H    1.262413  -2.357169   1.544927
H    0.607906  -0.367136  -1.067544
H    5.572122  -0.539158   1.883641
H    4.497926  -2.538809  -3.451679
H    4.705324  -4.439401  -0.703224
H    7.387563  -2.786099  -1.769502
H    4.133096   2.410856  -2.904887
H    5.545212   5.616039  -0.011943
H    8.723864   1.076898  -3.183848
H    9.206028   2.291898  -0.078858
H    7.697025   4.983491  -4.458809

