%chk=mol_6197.chk
# wB97XD/Def2SVP opt pop=full gfinput

C 5 H 5 N 1 O 1

1 2
O    2.713703  -1.950141   0.215863
C    4.839343  -1.074498  -0.040024
C    5.287718   1.678379   0.088704
C    7.628787   2.623828  -0.136117
C    8.221423   5.403502  -0.016082
C    9.481304   6.237929  -2.348495
N   10.491117   6.893022  -4.183060
H    6.510163  -2.275344  -0.367986
H    3.622775   2.839729   0.371067
H    9.234902   1.364874  -0.407085
H    9.460215   5.747696   1.607269
H    6.502226   6.518780   0.284952

