%chk=mol_4552.chk
# wB97XD/Def2SVP opt pop=full gfinput

C 5 H 11 N 1 O 1

1 2
C    1.993756  -0.380912  -0.262124
C    4.866498  -0.228808  -0.214125
C    5.825251   2.413237   0.487171
O    4.951498   3.033766   2.964262
C    8.674637   2.515244   0.406102
C   10.136585   4.470506   1.879635
N   10.114683   1.820865   2.672451
H    1.392369  -2.286380  -0.793326
H    1.206382   0.948416  -1.636578
H    1.184631   0.044144   1.593795
H    5.607347  -0.780079  -2.068570
H    5.565905  -1.614847   1.159045
H    5.056151   3.819647  -0.824053
H    6.194163   2.272452   4.102387
H    9.435251   1.935514  -1.406164
H    9.117229   5.779368   3.079535
H   11.892575   5.180382   1.104356
H   11.769196   0.948926   2.184561

