%chk=mol_5716.chk
# wB97XD/Def2SVP opt pop=full gfinput

C 7 H 16

1 2
C    1.830540  -0.198005  -0.044125
C    4.724334   0.013852  -0.083167
C    5.725776  -1.593833  -2.282676
C    5.727004   2.809701  -0.079482
C    4.897452   4.297974  -2.440940
C    4.754891   4.228168   2.279274
C    8.643929   2.836649   0.035565
H    1.014235   0.725863   1.613940
H    1.253134  -2.185790   0.039212
H    0.975477   0.621399  -1.739757
H    5.404692  -0.885582   1.661050
H    5.112767  -0.855914  -4.115408
H    5.028202  -3.536112  -2.133047
H    7.789243  -1.701812  -2.276723
H    5.607082   3.434502  -4.180112
H    5.626282   6.235983  -2.382453
H    2.838898   4.427458  -2.581536
H    5.203248   3.187817   4.011492
H    2.708696   4.520830   2.214268
H    5.622030   6.102719   2.433684
H    9.337099   1.707878   1.626034
H    9.364122   4.763697   0.275749
H    9.491074   2.095007  -1.699185

