%chk=mol_3824.chk
# wB97XD/Def2SVP opt pop=full gfinput

C 5 H 9 N 1 O 1

1 2
C   -2.826104   1.485438   0.298123
C   -2.536334  -1.345712  -0.244587
C    0.057845  -2.296565   0.367041
O    1.885304  -1.819353  -1.596214
C    2.187093  -0.449320   0.718153
C    1.648125   2.324968   0.639408
N   -0.702128   2.962335  -0.679791
H   -4.577313   2.153778  -0.584095
H   -3.026926   1.807939   2.337081
H   -2.956061  -1.733219  -2.236793
H   -3.930706  -2.387537   0.876927
H    0.105919  -4.125367   1.266929
H    3.777751  -0.937096   1.900460
H    1.556171   3.035902   2.582330
H    3.224515   3.298215  -0.285424
H   -1.054788   4.841497  -0.462662

