%chk=mol_5758.chk
# wB97XD/Def2SVP opt pop=full gfinput

C 4 H 12 N 2 O 1

1 2
N    2.171900   0.158605  -1.765099
C    4.890328   0.187707  -1.269008
C    5.748774   2.859382  -0.588971
C    8.553694   2.932269   0.096452
O   10.034710   2.187339  -2.042019
C    9.383530   5.599788   0.909525
N   12.132741   5.643799   1.316799
H    1.653170  -1.624087  -2.279898
H    1.799643   1.274072  -3.292753
H    5.894301  -0.502875  -2.942474
H    5.295164  -1.109761   0.292019
H    4.632588   3.569466   1.006922
H    5.395432   4.110173  -2.205499
H    8.947853   1.584970   1.621820
H   11.693285   2.959292  -1.741950
H    8.398982   6.184696   2.631803
H    8.949062   6.961354  -0.587705
H   12.565432   4.536306   2.837481
H   12.655307   7.433937   1.814005

