%chk=mol_5477.chk
# wB97XD/Def2SVP opt pop=full gfinput

C 5 H 9 N 1 O 1

1 2
N    1.458680   0.060301  -0.143525
C    4.174121   0.011225   0.359010
C    5.872551  -1.704949  -1.150050
C    5.083193  -2.762062  -3.651291
C    5.543436  -0.590067  -5.492300
O    5.305576   1.697465  -4.039120
C    6.054002   1.107512  -1.467807
H    0.742851   1.815894   0.187744
H    0.520506  -1.151013   1.017580
H    4.655699   0.242698   2.346095
H    7.413471  -2.689080  -0.247290
H    6.160413  -4.444126  -4.185781
H    3.078043  -3.282964  -3.632432
H    7.471127  -0.659042  -6.245356
H    4.205869  -0.582300  -7.067009
H    7.690599   2.073596  -0.705775

