%chk=mol_3885.chk
# wB97XD/Def2SVP opt pop=full gfinput

C 5 H 7 N 1 O 1

1 2
C    2.780033   0.136438   0.935244
C    5.183405  -0.141578  -0.492066
C    6.556216   2.098541  -1.569795
C    7.662084   0.645398   0.620718
C    9.225549  -1.593417   0.197476
N    8.090919  -3.374616  -1.028200
O    5.575372  -2.588603  -1.650676
H    2.641988   1.982795   1.858867
H    2.632048  -1.321353   2.395152
H    1.165148  -0.061945  -0.341247
H    5.814385   3.969634  -1.200222
H    7.415380   1.889745  -3.417929
H    7.679734   1.490484   2.479245
H   11.181131  -1.700772   0.890893

