%chk=mol_2951.chk
# wB97XD/Def2SVP opt pop=full gfinput

C 6 H 12 O 1

1 2
C    2.861990  -0.038853   2.492605
C    4.277565   0.552178   0.057977
C    5.576204   3.115062   0.084452
C    3.843174   5.374287   0.217942
O    2.256031   5.398116  -1.944245
C    8.121060   3.239274  -0.039703
C    9.775874   5.530964  -0.080049
H    2.122125  -1.970833   2.430150
H    1.251566   1.231837   2.764046
H    4.102085   0.119128   4.142317
H    2.968060   0.457711  -1.543698
H    5.663868  -0.956069  -0.258023
H    4.840836   7.178408   0.280209
H    2.655462   5.294899   1.907546
H    3.360613   5.209484  -3.400316
H    9.179155   1.473212  -0.130221
H    8.740815   7.313542  -0.074002
H   10.955763   5.499462  -1.779215
H   11.026344   5.514693   1.567811

