%chk=mol_1422.chk
# wB97XD/Def2SVP opt pop=full gfinput

C 5 H 14 N 2

1 2
C    1.962103  -0.305115   0.681114
C    4.837359  -0.294514   0.534226
C    6.021801   2.352841   0.854534
N    5.418128   3.416757   3.362862
C    8.947910   2.237700   0.456520
C   10.079988   4.886378   0.161288
N   10.210946   0.945014   2.579684
H    1.237034  -2.186734   0.214616
H    1.140941   1.045604  -0.653278
H    1.295351   0.160986   2.582934
H    5.385096  -1.050064  -1.316459
H    5.580758  -1.607061   1.953958
H    5.218214   3.611512  -0.583321
H    5.897779   2.094062   4.683251
H    3.510469   3.631997   3.518935
H    9.346831   1.172443  -1.275792
H    9.819093   6.036862   1.862023
H    9.197599   5.881773  -1.423909
H   12.111651   4.779571  -0.223706
H    9.888011   2.004773   4.159268
H   12.117435   1.005486   2.305919

