%chk=mol_5929.chk
# wB97XD/Def2SVP opt pop=full gfinput

C 5 H 9 N 1 O 1

1 2
O    3.181108  -0.454063  -1.680798
C    5.364611   0.122322  -0.189162
C    6.693316  -2.060671   1.045661
C    7.824430  -0.756401  -1.216228
C    9.660960   1.372829  -0.964856
N    8.041106   3.603405  -0.656510
C    5.722677   2.811270   0.644680
H    1.648616   0.200594  -0.909922
H    5.917526  -3.935392   0.768136
H    7.556996  -1.771996   2.879055
H    7.846011  -1.676111  -3.037773
H   10.874505   1.111896   0.693227
H   10.852168   1.569418  -2.643122
H    8.949932   4.976632   0.330400
H    5.964278   2.910613   2.698623
H    4.139577   4.022301   0.097850

