%chk=mol_3320.chk
# wB97XD/Def2SVP opt pop=full gfinput

C 7 H 10

1 2
C    3.399655  -0.531996   2.812026
C    4.250674   0.228184   0.176670
C    5.629740   2.709735   0.206679
C    8.138559   3.092461   0.000000
C   10.071352   1.017296  -0.188576
C    9.025464   5.597010   0.000000
C    9.776215   7.717093   0.000000
H    2.347361  -2.311796   2.736985
H    2.164927   0.904272   3.647417
H    5.020398  -0.800960   4.071415
H    2.591703   0.421428  -1.049611
H    5.392825  -1.282425  -0.651974
H    4.397544   4.354099   0.376509
H    9.323341  -0.840815   0.318249
H   11.653166   1.384621   1.098781
H   10.820534   0.909034  -2.115548
H   10.445707   9.614889   0.000189

