%chk=mol_0718.chk
# wB97XD/Def2SVP opt pop=full gfinput

C 5 H 10 O 1

1 2
C    2.429432  -0.681794   0.295421
C    5.291668  -0.700238   0.057089
C    6.374368   1.972572   0.086436
C    9.233485   2.002316  -0.155033
C   10.461599   4.570567  -0.201350
O   10.507785   0.063400  -0.298860
H    1.696917  -2.615721   0.272820
H    1.561689   0.351584  -1.272258
H    1.838760   0.207738   2.066945
H    5.825194  -1.659104  -1.700924
H    6.099677  -1.807466   1.611313
H    5.876179   2.917756   1.860057
H    5.591019   3.066685  -1.487233
H    9.754067   5.647125  -1.815252
H   12.509155   4.361053  -0.385277
H   10.047730   5.567530   1.559062

