%chk=mol_6674.chk
# wB97XD/Def2SVP opt pop=full gfinput

C 3 H 6 O 3 S 1

1 2
O    1.730441   0.250521  -0.237350
C    4.462702   0.100080  -0.130127
C    5.758789   1.965788   1.715758
C    7.839000   0.047375   2.416487
S    5.794996  -2.476807   1.658367
O    4.179885  -3.190840   3.750691
O    6.984409  -4.310106   0.013587
H    1.160141  -1.499894  -0.341455
H    5.261111   0.123040  -2.040734
H    4.562517   2.508328   3.320192
H    6.459292   3.703089   0.839794
H    9.502375   0.100326   1.187485
H    8.441804   0.083526   4.391176

