%chk=mol_5084.chk
# wB97XD/Def2SVP opt pop=full gfinput

C 5 H 13 N 1 O 1

1 2
C    2.368243   2.075940  -2.502149
N    4.931089   3.056764  -2.217726
C    6.233507   1.782257  -0.106505
C    9.048254   2.574582   0.082260
C   10.195526   1.563786   2.534746
C   10.588967   1.644723  -2.185960
O    9.204384   5.278496   0.169471
H    1.424060   3.064059  -4.053954
H    1.250281   2.369603  -0.786466
H    2.386082   0.060415  -2.964716
H    4.803306   4.932979  -1.782031
H    6.118706  -0.276070  -0.327244
H    5.258125   2.291690   1.651753
H    9.176793   2.296074   4.183060
H   12.160596   2.186904   2.742748
H   10.152043  -0.504500   2.602550
H    9.884987   2.446609  -3.960053
H   10.547809  -0.418064  -2.338026
H   12.563637   2.249794  -2.025087
H    8.672596   5.861761  -1.493488

