%chk=mol_0205.chk
# wB97XD/Def2SVP opt pop=full gfinput

C 5 H 12

1 2
C    1.835756  -0.147890   0.076950
C    4.704360   0.030387   0.190314
C    5.704781   2.757281   0.082146
C    4.856502   4.332367   2.351877
C    8.593152   2.737835  -0.068332
H    1.253021  -2.130288  -0.037927
H    1.094700   0.833369  -1.586727
H    0.956050   0.661669   1.763662
H    5.478845  -1.039501  -1.407638
H    5.372983  -0.906898   1.913745
H    4.986080   3.662497  -1.639508
H    5.427426   3.448580   4.134381
H    2.802653   4.569755   2.378050
H    5.690268   6.226307   2.283526
H    9.427787   1.860001   1.610595
H    9.335965   4.664014  -0.220229
H    9.236717   1.684218  -1.729704

