%chk=mol_4036.chk
# wB97XD/Def2SVP opt pop=full gfinput

C 5 H 9 N 1 O 1

1 2
C    1.553941   0.249217  -1.090561
C    4.149744  -0.135909  -0.013455
C    5.966565  -1.785564  -1.496285
O    6.101377   0.913985  -1.595987
C    4.550668   0.320176   2.820303
C    2.498860   0.960227   4.697368
N    3.570354  -1.569323   4.604261
H    1.525255   0.014910  -3.147037
H    0.867101   2.155100  -0.668396
H    0.228600  -1.122403  -0.284498
H    5.283334  -2.769413  -3.155465
H    7.431858  -2.778275  -0.468747
H    6.422915   1.039973   3.294681
H    0.568864   1.142207   4.051743
H    2.987619   2.113111   6.315200
H    4.828666  -1.847699   6.041738

