%chk=mol_6107.chk
# wB97XD/Def2SVP opt pop=full gfinput

C 5 H 9 N 1 O 1

1 2
O    4.167810  -0.643036   2.662983
C    4.655775  -0.030255   0.100930
C    5.645670   2.586903  -0.032220
C    7.827038   3.384840  -1.020206
C    8.081640   6.161963  -0.715639
N    5.612317   7.041913   0.224235
C    4.214297   4.761108   1.034738
H    3.702332  -2.416752   2.704160
H    2.894512  -0.194150  -0.970847
H    6.019307  -1.390782  -0.655981
H    9.253554   2.201437  -1.873021
H    9.569932   6.613286   0.648724
H    8.533172   7.074908  -2.516151
H    4.658440   7.807744  -1.260901
H    2.275948   4.827305   0.314072
H    4.157568   4.674351   3.101230

