%chk=mol_0992.chk
# wB97XD/Def2SVP opt pop=full gfinput

C 6 H 6

1 2
C    1.871226  -0.047867   0.040837
C    4.762110   0.000000   0.000000
C    5.702740  -1.456620  -2.188908
C    6.474788  -2.634675  -3.971052
C    5.672996   2.572238   0.000000
C    6.423746   4.692322   0.000000
H    1.132966   0.950910   1.699336
H    1.161898  -1.993585   0.102593
H    1.070001   0.857596  -1.643967
H    5.428352  -0.941575   1.723638
H    7.165898  -3.664519  -5.556702
H    7.100835   6.588871  -0.008825

