%chk=mol_0869.chk
# wB97XD/Def2SVP opt pop=full gfinput

C 4 H 8 O 2

1 2
O    1.711223  -0.006028   0.214522
C    4.419389   0.010393   0.025700
C    5.796395   1.992943   1.660332
C    7.779341  -0.037624   2.314367
O   10.103516   0.019993   0.895730
C    5.828577  -2.051865   1.528959
H    1.170288  -1.485249  -0.733025
H    5.005809   0.085510  -1.961044
H    4.710464   2.658561   3.294889
H    6.509634   3.635210   0.625310
H    8.230929  -0.102423   4.333822
H    9.630101   0.225558  -0.866553
H    6.566685  -3.611531   0.389208
H    4.752793  -2.839503   3.115478

