%chk=mol_2218.chk
# wB97XD/Def2SVP opt pop=full gfinput

C 5 H 8 O 2

1 2
C   -3.118275   1.333580   0.599289
C   -2.907155  -1.339532  -0.807650
C   -0.224216  -1.272164   0.218169
O    2.237625  -1.740287  -0.813074
C    3.710137   0.478819  -0.010564
O    1.915426   2.461085   0.745176
C   -0.425585   1.650884  -0.351432
H   -4.518279   2.622505  -0.201180
H   -3.349048   1.259106   2.654782
H   -3.089664  -1.294897  -2.869549
H   -4.131452  -2.816656  -0.043842
H   -0.187461  -1.778402   2.238437
H    4.882126  -0.028459   1.612636
H    4.842839   1.148689  -1.601562
H   -0.405195   2.160996  -2.372022

