%chk=mol_3489.chk
# wB97XD/Def2SVP opt pop=full gfinput

C 6 H 8 O 1

1 2
O    1.866294   0.356346  -1.334978
C    4.047264   0.136268   0.225369
C    4.682382  -2.513430   1.473004
C    7.288938  -1.059229   1.781105
C    6.721529  -0.271138  -1.060420
C    6.660585   1.237034   3.309496
C    4.493466   2.037257   2.261171
H    0.450341   0.192582  -0.177426
H    4.665771  -4.168849   0.228543
H    3.685117  -2.983160   3.224496
H    9.000483  -2.104494   2.234337
H    7.693585   1.420488  -1.750529
H    6.859555  -1.755934  -2.497462
H    7.719437   2.048992   4.848433
H    3.362749   3.662346   2.733356

