%chk=mol_7047.chk
# wB97XD/Def2SVP opt pop=full gfinput

C 6 H 7 N 1

1 2
C    1.889726   0.000000   0.000000
C    4.138803   0.000000   0.000000
C    6.795758   0.000000   0.000000
C    8.139391   1.983060  -0.826434
C   10.896331   2.163528  -0.831442
C   12.400043   0.637896  -2.705918
N   12.058815   3.349218  -3.032028
H   -0.122983   0.004649  -0.005102
H    7.755304  -1.664357   0.719948
H    7.133451   3.634775  -1.534212
H   11.753776   2.596219   0.980390
H   11.411432  -0.554465  -4.044524
H   14.269719  -0.000094  -2.173034
H   13.649681   4.315738  -2.522595

