%chk=mol_6104.chk
# wB97XD/Def2SVP opt pop=full gfinput

C 5 H 9 N 1 O 1

1 2
O    1.646197   0.276618  -0.646249
C    3.799767   0.260442   0.218131
C    5.647522   2.415901  -0.060320
C    4.375906   4.991409  -0.235025
C    6.165780   6.718317   1.184461
N    7.010487   5.131967   3.275746
C    7.409257   2.608351   2.220598
H    4.562687  -1.483284   1.071928
H    6.774611   2.043588  -1.759713
H    2.512693   4.987138   0.674727
H    4.118186   5.592645  -2.197714
H    7.770044   7.261821  -0.009146
H    5.226359   8.433564   1.853254
H    8.620950   5.830070   4.067465
H    9.377236   2.420475   1.598066
H    7.064817   1.169419   3.666201

