%chk=mol_0714.chk
# wB97XD/Def2SVP opt pop=full gfinput

C 5 H 8 O 1

1 2
C    1.890369  -0.102348   0.007181
C    4.762110   0.000000   0.000000
C    5.672996   2.572238   0.000000
C    6.423746   4.692322   0.000000
C    7.334632   7.264561   0.000000
O    5.375647   8.913819  -0.802472
H    1.241531  -2.065452   0.006501
H    1.105282   0.835977  -1.662203
H    1.113899   0.831876   1.682896
H    5.470908  -1.006582  -1.665057
H    5.479412  -1.009681   1.659520
H    8.931394   7.477892  -1.297108
H    7.945373   7.844574   1.888177
H    6.117610  10.581162  -0.950381

