%chk=mol_1390.chk
# wB97XD/Def2SVP opt pop=full gfinput

C 6 H 13 N 1

1 2
C    2.685282  -0.861621   1.860568
C    4.277225  -0.620057  -0.551838
C    3.849750  -2.880680  -2.339292
N    4.540143  -5.280311  -1.158705
C    3.637420   1.906053  -1.863686
C    5.340423   2.499163  -4.059774
C    4.526877   2.847515  -6.430265
H    2.995310   0.761390   3.106918
H    3.183338  -2.560012   2.930323
H    0.665543  -0.948964   1.416973
H    6.276348  -0.582489   0.009430
H    4.979069  -2.667140  -4.060077
H    1.861569  -2.967437  -2.912238
H    6.407646  -5.248695  -0.688163
H    4.333860  -6.700156  -2.443586
H    3.830135   3.454514  -0.497565
H    1.651545   1.897039  -2.462502
H    7.349523   2.677024  -3.657640
H    2.539754   2.709716  -6.922350
H    5.846227   3.289522  -7.938418

