%chk=mol_1697.chk
# wB97XD/Def2SVP opt pop=full gfinput

C 5 H 8 N 2

1 2
C    5.418072  -2.251061   0.977215
N    4.441404   0.166428   0.160778
C    5.879694   2.268371   0.106486
C    4.918749   4.657835  -0.185741
N    6.906892   6.320888  -0.164368
C    9.121557   5.009380   0.135002
C    8.533531   2.476335   0.302904
H    3.953496  -3.696493   0.766360
H    5.972612  -2.189720   2.969648
H    7.040949  -2.835572  -0.165653
H    2.534539   0.344289   0.297632
H    3.003984   5.332524  -0.414341
H    6.760760   8.216681  -0.349127
H   10.917080   5.983194   0.194037
H    9.887010   0.964289   0.534792

