%chk=mol_2912.chk
# wB97XD/Def2SVP opt pop=full gfinput

C 6 H 8 O 1

1 2
C    1.476292   0.035017   0.178825
C    4.281212   0.006576   0.503140
C    5.839235   1.773224  -0.451701
C    8.670952   1.883282  -0.191562
O    9.605308  -0.297840   1.063406
C    9.842601   2.061767  -2.703839
C   10.812994   2.201625  -4.753304
H    0.861526  -1.692514  -0.776999
H    0.832613   1.653340  -0.936870
H    0.554937   0.118864   2.028130
H    5.042508  -1.548309   1.612182
H    5.016713   3.334819  -1.510893
H    9.178135   3.533126   0.949266
H    9.338120  -1.694725  -0.098341
H   11.678772   2.325081  -6.566572

