%chk=mol_3411.chk
# wB97XD/Def2SVP opt pop=full gfinput

C 6 H 10 O 1

1 2
C    2.016073  -0.408219   0.289147
O    4.689941  -0.177502   0.154353
C    5.465201   2.412330   0.165427
C    8.341270   2.529493   0.000000
C    9.252137   5.101750   0.000000
C   10.002906   7.221815   0.000000
C   10.933483   9.827124   0.000151
H    1.536801  -2.417224   0.283440
H    1.130018   0.487379  -1.349756
H    1.303798   0.436621   2.036237
H    4.805214   3.318132   1.909946
H    4.609325   3.392361  -1.449155
H    8.965881   1.537916  -1.709371
H    9.158387   1.469300   1.582287
H    9.434136  11.141504  -0.543712
H   12.496872  10.047919  -1.333429
H   11.609438  10.364524   1.877840

