%chk=mol_3368.chk
# wB97XD/Def2SVP opt pop=full gfinput

C 6 H 8 O 1

1 2
C    6.943969  -1.865991   0.455500
O    5.079981   0.067085   0.600952
C    5.894282   2.508819   0.389227
C    8.255231   3.387277   0.100118
C    8.879974   6.144917  -0.111891
C   10.132145   6.635169  -2.542381
C   11.154203   7.035564  -4.526593
H    5.985651  -3.689520   0.630091
H    8.299110  -1.705024   2.010782
H    7.910790  -1.826023  -1.373661
H    4.264639   3.751673   0.486812
H    9.854752   2.105816   0.020012
H   10.135168   6.670261   1.448758
H    7.180449   7.316887   0.053064
H   12.057529   7.381913  -6.294281

