%chk=mol_4969.chk
# wB97XD/Def2SVP opt pop=full gfinput

C 5 H 7 N 1 O 1

1 2
C    2.070346  -0.011452  -0.312542
N    4.752850  -0.020938   0.149931
C    6.176816  -2.159088   0.369630
C    8.584365  -1.550842   0.810711
C    8.913177   1.271238   0.920032
C    6.210680   2.149261   0.455859
O    5.501881   4.343498   0.377208
H    1.369031   1.922777  -0.503291
H    1.110139  -0.926022   1.273505
H    1.676754  -1.051708  -2.055209
H    5.359358  -4.023208   0.192355
H   10.107484  -2.885309   1.061043
H    9.556893   1.887402   2.781885
H   10.155559   1.949045  -0.582414

