%chk=mol_5925.chk
# wB97XD/Def2SVP opt pop=full gfinput

C 4 H 4 N 2 O 1

1 2
O    1.184065  -1.934758  -1.395204
C   -0.839681  -2.554664   0.066726
N   -2.637547  -1.062895   0.781704
C   -2.573958   1.409018   0.017801
C   -0.553331   2.890979  -0.284460
C    1.996212   1.919206   0.269494
N    2.883344  -0.327981  -0.099683
H   -0.846767  -4.592110   0.481861
H   -4.433184   2.240176  -0.274653
H   -0.724672   4.864684  -0.788129
H    3.284779   3.334989   1.096570

