%chk=mol_5954.chk
# wB97XD/Def2SVP opt pop=full gfinput

C 5 H 7 N 1 O 1

1 2
O    1.863667  -0.282873  -0.035395
C    4.154393  -0.113932   0.023074
C    6.026507  -2.282222   0.112288
C    8.489028  -0.717170  -0.048245
C    8.171819   1.376193  -2.133803
C    6.109617   2.190344  -0.159153
N    8.161557   1.504411   1.800021
H    5.802064  -3.515155  -1.527447
H    5.878541  -3.314976   1.893298
H   10.285892  -1.721918   0.052799
H    7.486622   0.745195  -3.977987
H    9.765651   2.673055  -2.396305
H    5.401650   4.118318  -0.136306
H    9.648696   2.734623   1.837381

