%chk=mol_5429.chk
# wB97XD/Def2SVP opt pop=full gfinput

C 4 H 6 N 2 O 1

1 2
C    5.713814  -1.718819   1.359261
O    5.067603  -0.150082  -0.723198
N    6.168633   2.201625  -0.355117
C    4.911625   4.354628   0.262048
C    6.713422   6.228254   0.300164
C    8.978354   4.987309  -0.361977
N    8.640716   2.518892  -0.776961
H    4.707251  -3.511791   1.146213
H    5.128755  -0.861507   3.150325
H    7.743153  -2.122333   1.383582
H    2.900503   4.355422   0.598268
H    6.437466   8.207289   0.716584
H   10.853831   5.781239  -0.568449

