%chk=mol_3199.chk
# wB97XD/Def2SVP opt pop=full gfinput

C 6 H 12 O 1

1 2
C    6.035067  -2.867395  -1.856826
C    5.260488  -0.955975   0.147002
O    5.332127  -2.147712   2.567665
C    6.828318   1.497117   0.164520
C    9.654516   1.193286   0.551989
C   11.271328   1.036666  -1.780727
C   10.686024   1.221047   2.872497
H    6.065511  -2.016206  -3.741034
H    4.699031  -4.450456  -1.878690
H    7.888680  -3.691693  -1.448645
H    3.283229  -0.437661  -0.186270
H    7.093918  -2.547256   2.917832
H    6.095085   2.711852   1.679154
H    6.498428   2.534520  -1.599880
H   10.773291  -0.610211  -2.922839
H   13.282753   0.885658  -1.318103
H   11.021997   2.733923  -2.936464
H    9.526204   1.412854   4.556999
H   12.713264   1.073988   3.155956

