%chk=mol_3541.chk
# wB97XD/Def2SVP opt pop=full gfinput

C 5 H 8 O 2

1 2
O    1.693516   0.445049   0.399224
C    4.402646   0.144772   0.040742
C    6.032119   1.944207   1.720766
C    7.743644  -0.313959   2.358038
C    5.569287  -2.080135   1.591301
C    5.094569   0.159228  -2.877807
O    7.202634  -0.059753  -3.836843
H    1.431071   0.414719   2.219389
H    5.023213   2.720601   3.354850
H    6.975282   3.497373   0.735047
H    9.408115  -0.466006   1.135366
H    8.350039  -0.447034   4.328021
H    6.142933  -3.740978   0.502251
H    4.398810  -2.709622   3.180220
H    3.439150   0.397882  -4.122985

