%chk=mol_1065.chk
# wB97XD/Def2SVP opt pop=full gfinput

C 4 H 11 N 1 O 1

1 2
C    3.535545  -0.742511   2.056211
O    5.924669   0.484734   2.145312
C    5.963957   2.867848   0.834352
C    4.566089   4.886908   2.347248
C    8.755952   3.636400   0.497584
N   10.121959   1.791139  -1.062140
H    3.766413  -2.649264   2.814653
H    2.848498  -0.888795   0.113554
H    2.161280   0.252751   3.232169
H    5.089769   2.650870  -1.034323
H    5.272827   4.977520   4.290302
H    2.544025   4.463514   2.462767
H    4.769272   6.750820   1.474289
H    9.682125   3.723724   2.348457
H    8.899665   5.498517  -0.390928
H    9.739062   0.040629  -0.331496
H   12.015786   2.059159  -0.839397

