%chk=mol_3549.chk
# wB97XD/Def2SVP opt pop=full gfinput

C 5 H 8 O 2

1 2
O    2.270185   0.360276   0.768759
C    4.850133   0.014532   0.093919
C    5.305538  -2.719751  -0.768741
C    4.761562  -2.720658  -3.625421
C    5.440691  -0.102083  -4.453915
O    3.539344   1.781313  -4.058074
C    5.487424   1.572479  -2.185090
H    1.394750   0.893368  -0.766019
H    6.023256   0.488041   1.729099
H    4.139540  -4.104239   0.230925
H    7.301977  -3.200516  -0.479083
H    5.895586  -4.153561  -4.593244
H    2.762609  -3.105822  -3.994427
H    6.803676   0.097340  -5.950313
H    6.882780   3.035108  -1.967791

