%chk=mol_2079.chk
# wB97XD/Def2SVP opt pop=full gfinput

C 5 H 12 N 2

1 2
N    2.869398   5.973368   3.357816
C    4.536401   6.197678   1.165073
C    6.039413   3.760215   0.793269
C    7.679412   3.820441  -1.593795
N    9.601869   5.810757  -1.417975
C   12.152678   4.865610  -0.958034
C   11.372976   5.784849  -3.534393
H    1.948440   7.646266   3.612193
H    3.938889   5.712831   4.939310
H    5.804067   7.810541   1.449666
H    3.385936   6.585582  -0.508998
H    4.726715   2.160921   0.635420
H    7.228543   3.391718   2.454055
H    6.465793   4.194946  -3.233019
H    8.495434   1.935571  -1.880882
H   12.439671   2.857833  -0.677542
H   13.362650   6.076717   0.167468
H   12.045303   7.617448  -4.147552
H   11.093921   4.411320  -5.026445

