%chk=mol_0927.chk
# wB97XD/Def2SVP opt pop=full gfinput

C 4 H 4 O 2

1 2
O    6.006891  -1.733143  -2.536920
C    4.759048   0.151953  -2.086957
O    5.523311   2.231956  -0.819177
C    8.105206   2.207710   0.000000
C    9.016091   4.779949   0.000000
C    9.766842   6.900033   0.000000
H    2.777142   0.406045  -2.667745
H    9.293994   1.051633  -1.240643
H    8.165903   1.405181   1.905940
H   10.433348   8.800550  -0.002891

