%chk=mol_4501.chk
# wB97XD/Def2SVP opt pop=full gfinput

C 4 H 10 N 2 O 1

1 2
C    3.749765  -2.216290  -2.742314
C    4.344858  -1.104847  -0.155846
C    6.110146   1.173671  -0.305399
N    8.612182   0.331174  -1.151713
C   10.171394   2.173412  -1.473495
N   12.619781   1.886400  -2.272925
O   13.536713  -0.567504  -1.891049
H    2.431303  -3.797650  -2.550034
H    5.457095  -2.921535  -3.670151
H    2.877618  -0.800847  -3.971241
H    5.182215  -2.574979   1.042260
H    2.570424  -0.521224   0.740451
H    6.260908   2.023349   1.578186
H    5.325059   2.588641  -1.599597
H    9.673319   4.176616  -1.151297
H   13.871629   3.262461  -1.789533
H   11.986533  -1.595685  -1.919678

