%chk=mol_0065.chk
# wB97XD/Def2SVP opt pop=full gfinput

C 4 H 6 O 1

1 2
C    1.778894  -0.193187   0.004327
C    4.588141   0.003061  -0.402285
O    5.853710  -1.820732  -1.093773
C    5.891429   2.456814   0.038078
C    4.755288   4.586044   0.793175
H    0.783783   1.095625  -1.266589
H    1.314701   0.218150   1.974556
H    1.161860  -2.121444  -0.417195
H    7.914664   2.414068  -0.305909
H    2.743202   4.715925   1.158988
H    5.859719   6.294754   1.067525

