%chk=mol_4289.chk
# wB97XD/Def2SVP opt pop=full gfinput

C 4 H 6 N 2 O 1

1 2
C    1.851799  -0.171323  -0.002079
C    4.704341   0.151537   0.018557
C    5.426481   2.851105  -0.002929
N    5.899007   4.384542   1.899213
N    6.478132   6.698701   0.844613
C    6.314218   6.396647  -1.609347
O    5.655969   4.009470  -2.309075
H    1.355841  -2.179232   0.025625
H    1.014273   0.674330  -1.696350
H    0.984717   0.728225   1.648710
H    5.524936  -0.809653  -1.621574
H    5.488256  -0.754605   1.706876
H    6.625739   7.759046  -3.092593

