%chk=mol_4539.chk
# wB97XD/Def2SVP opt pop=full gfinput

C 6 H 9 N 1

1 2
C    3.823577  -0.321102  -0.078518
C    1.392747  -1.706366   0.445238
C   -0.872732  -2.784663  -0.906936
C   -3.144693  -1.066448  -0.403211
C   -2.787365   1.298072   0.512399
C   -0.146586   2.431397   0.862225
N    1.587408   0.977518  -0.711841
H    4.974288  -0.993353  -1.634349
H    4.915612   0.381479   1.504770
H    1.085421  -1.904938   2.478451
H   -1.276510  -4.665734  -0.141333
H   -0.550421  -2.981818  -2.943173
H   -5.026596  -1.812323  -0.719929
H   -4.391572   2.495043   0.957297
H    0.376018   2.479774   2.867187
H   -0.172211   4.384391   0.177219

