%chk=mol_0006.chk
# wB97XD/Def2SVP opt pop=full gfinput

C 2 H 6 O 1

1 2
C    1.857034  -0.003383   0.008598
O    4.541579   0.044654   0.000000
C    5.482984   2.559180  -0.008598
H    1.240605  -1.975803   0.005896
H    1.110384   0.923811  -1.682234
H    1.121779   0.915988   1.709144
H    7.548020   2.481853  -0.005896
H    4.858202   3.572508   1.682234
H    4.861793   3.559148  -1.709144

