%chk=mol_4912.chk
# wB97XD/Def2SVP opt pop=full gfinput

C 4 H 9 N 1 O 2

1 2
C    3.338919   5.433927  -2.644483
C    6.104477   4.881805  -3.158998
O    7.625196   7.029743  -2.505928
C    8.401552   7.142919  -0.050493
O    7.814679   5.638962   1.610708
C    9.985823   9.518494   0.370065
N   11.712070   9.199962   2.528000
H    2.152795   3.848446  -3.236950
H    2.736645   7.134056  -3.658566
H    3.013168   5.786511  -0.632510
H    6.380094   4.538877  -5.180684
H    6.736534   3.179143  -2.162981
H    8.689490  11.090500   0.724200
H   11.109133   9.914788  -1.319142
H   10.730621   8.375360   3.975719
H   12.280782  10.926926   3.154520

