%chk=mol_2649.chk
# wB97XD/Def2SVP opt pop=full gfinput

C 5 H 6 O 2

1 2
C    1.889726   0.000000   0.000000
C    4.138803   0.000000   0.000000
C    6.867567   0.000000   0.000000
C    7.987627   2.111259   1.568699
O   10.435219   1.185293   2.227269
C   10.074319  -1.482585   2.444266
O    7.808292  -2.239930   1.193910
H   -0.124231  -0.020409   0.003288
H    7.633549   0.036188  -1.923911
H    6.940057   2.448556   3.324274
H    8.143850   3.897107   0.538629
H   11.691754  -2.459233   1.604321
H    9.941868  -1.995003   4.442047

