%chk=mol_5167.chk
# wB97XD/Def2SVP opt pop=full gfinput

C 4 H 10 N 2 O 1

1 2
C    1.969510   0.278394  -0.946054
N    4.703472   0.381800  -1.299810
C    5.706879   2.786231  -0.269229
C    8.585309   2.939998  -0.583510
O    9.769865   4.893805  -0.182094
N    9.707958   0.709706  -1.318216
C   12.405466   0.454536  -1.480260
H    1.242778  -1.500348  -1.713075
H    1.020414   1.831145  -1.933058
H    1.470585   0.344044   1.059910
H    5.072573   0.361731  -3.197322
H    5.295636   2.932345   1.752948
H    4.877799   4.395163  -1.274753
H    8.586726  -0.846616  -1.176619
H   13.188966   2.010309  -2.595992
H   12.850478  -1.350833  -2.377691
H   13.203668   0.512853   0.426133

