%chk=mol_6400.chk
# wB97XD/Def2SVP opt pop=full gfinput

C 4 H 6 N 2 O 1

1 2
O    1.201790   4.818178   0.014060
N    3.795099   5.199997  -0.341303
C    4.941350   3.051757  -0.183209
N    7.477798   2.648905  -0.422770
C    9.254725   4.722142  -0.398959
C   11.826643   3.733721  -0.742965
C   13.929587   2.922197  -1.022550
H    0.524607   6.519102  -0.193395
H    3.896464   1.277889   0.172948
H    8.153923   0.993164   0.259648
H    9.132990   5.735338   1.402763
H    8.813230   6.060749  -1.915540
H   15.793518   2.204914  -1.278324

