%chk=mol_2528.chk
# wB97XD/Def2SVP opt pop=full gfinput

C 5 H 8 O 2

1 2
C    1.926217   0.181130   0.119053
C    4.772371  -0.075022  -0.034998
O    6.024145   1.827403   1.512896
C    7.774485  -0.084962   2.416431
C    5.992718  -2.192593   1.544076
C    7.131014  -4.456276   0.138819
O    8.609800  -4.375245  -1.656269
H    1.002594  -1.404293  -0.834673
H    1.302210   1.926141  -0.798957
H    1.269480   0.221722   2.080324
H    5.451180   0.039703  -1.992395
H    9.595179   0.050172   1.443826
H    8.060022   0.037095   4.459130
H    4.770670  -2.840750   3.092650
H    6.521861  -6.313953   0.861583

