%chk=mol_2463.chk
# wB97XD/Def2SVP opt pop=full gfinput

C 5 H 10 O 2

1 2
C    1.881336   0.124042   0.370915
C    4.695403  -0.157849  -0.164331
C    5.283485  -0.108546  -2.984256
O    6.116004   1.824020   1.111858
C    7.714505  -0.032881   2.333132
C    6.030003  -2.217235   1.447360
O    7.226766  -4.312109   0.165578
H    1.504638   0.247460   2.402239
H    0.828513  -1.496569  -0.370953
H    1.123896   1.836927  -0.509432
H    7.323388  -0.117428  -3.337823
H    4.512761   1.595382  -3.870594
H    4.463458  -1.752135  -3.936167
H    9.629950   0.002135   1.551522
H    7.792437   0.249123   4.378080
H    4.845598  -2.949314   2.982215
H    8.413533  -3.562039  -1.020263

