%chk=mol_2225.chk
# wB97XD/Def2SVP opt pop=full gfinput

C 5 H 4 O 2

1 2
C    4.367724   0.186610   0.931011
O    2.382737   1.490087  -0.473206
C    4.054767   3.247910  -1.234558
C    4.159117   5.813535  -1.142755
O    6.321285   6.443551   0.184759
C    7.363337   4.221629   1.078334
C    6.027565   2.245694   0.111588
H    4.759294  -1.670782   0.111796
H    4.001193   0.033259   2.958158
H    2.884780   7.358140  -1.535119
H    8.811623   4.453499   2.499560

