%chk=mol_5210.chk
# wB97XD/Def2SVP opt pop=full gfinput

C 4 H 9 N 1 O 2

1 2
C    1.832354  -0.510944   0.009222
N    4.539935  -0.234326  -0.065139
C    5.635636   2.127529  -0.143714
O    4.421959   4.098684  -0.267264
C    8.491919   2.049124  -0.011546
C    9.630309   4.672046  -0.297386
O    9.051769   6.194428   1.843466
H    1.364533  -2.511219  -0.195454
H    0.976421   0.577784  -1.524726
H    1.135725   0.194472   1.822452
H    5.625318  -1.745294   0.377511
H    9.185052   0.821691  -1.528033
H    9.022081   1.235446   1.817917
H    8.956168   5.635334  -2.000086
H   11.690129   4.530807  -0.415192
H    7.229884   6.510314   1.762661

