%chk=mol_6306.chk
# wB97XD/Def2SVP opt pop=full gfinput

C 4 H 8 N 2 O 1

1 2
O    4.086589   2.915110  -0.505464
C    6.130234   2.237606   0.343684
N    8.349245   3.599872   0.215882
N    8.389590   5.899252  -1.106964
C    8.585782   7.929404   0.775525
C   11.124629   9.069022   1.346146
C    9.201246  10.555500  -0.116691
H    6.398443   0.417100   1.318216
H   10.007461   2.844643   0.814075
H    6.693750   6.054758  -2.049729
H    7.229809   7.825394   2.320735
H   12.760981   8.376664   0.327886
H   11.508602   9.634957   3.275519
H    8.269064  12.118530   0.822314
H    9.535426  10.854833  -2.114906

