%chk=mol_2271.chk
# wB97XD/Def2SVP opt pop=full gfinput

C 5 H 10 O 2

1 2
C    1.977315   0.148306  -0.175178
C    4.789341  -0.006803  -0.121302
C    6.207165  -1.324547  -2.213172
C    6.410140   1.503731  -1.916352
O    5.126336   3.010050  -3.788107
C    8.829915   2.673604  -0.993580
O   10.304261   3.418004  -3.117802
H    1.342197   1.861380   0.792740
H    1.162597  -1.481413   0.803663
H    1.220291   0.171965  -2.099334
H    5.476408  -0.258420   1.794352
H    5.153226  -2.080135  -3.796800
H    7.829060  -2.468341  -1.699298
H    4.108435   1.978921  -4.919448
H    9.947859   1.365535   0.152652
H    8.426516   4.356726   0.138706
H    9.100108   4.227828  -4.257100

