%chk=mol_5371.chk
# wB97XD/Def2SVP opt pop=full gfinput

C 4 H 9 N 1 O 2

1 2
C    5.360643  -1.672653  -0.705189
O    5.217496   0.072641   1.337189
C    5.693461   2.617138   0.542540
C    4.660065   4.364360   2.582349
C    8.529808   3.132694   0.196172
N   10.060599   2.030473   1.960969
O    9.395322   4.490537  -1.471983
H    4.991598  -3.564383   0.038286
H    7.243093  -1.658972  -1.558098
H    3.927191  -1.236769  -2.129683
H    4.721140   2.993893  -1.248712
H    5.520419   3.963190   4.422507
H    2.621258   4.085814   2.803541
H    5.012574   6.349631   2.121955
H    9.357792   0.644982   3.080537
H   11.950553   2.201984   1.751946

