%chk=mol_0765.chk
# wB97XD/Def2SVP opt pop=full gfinput

C 4 H 6 O 2

1 2
C    1.786793  -0.401737   0.214333
C    4.564936   0.212178  -0.154334
C    5.007850   3.010901  -0.487039
O    3.380928   4.654301  -0.424792
C    7.706417   3.827357  -0.928026
O    9.429356   2.294940  -0.992787
H    1.523214  -2.439977   0.447071
H    0.666903   0.213501  -1.414347
H    1.031564   0.544033   1.893713
H    5.265098  -0.768306  -1.835869
H    5.636751  -0.430026   1.494395
H    7.952194   5.878163  -1.178225

