%chk=mol_0217.chk
# wB97XD/Def2SVP opt pop=full gfinput

C 6 H 10

1 2
C    1.794163   0.011036   0.042953
C    4.668210   0.018557   0.042916
C    5.720938   2.707637   0.000000
C    8.449702   2.707637   0.000000
C   10.698779   2.707637   0.000000
C   13.427544   2.707637   0.000000
H    1.082492  -1.931829   0.073907
H    1.049535   0.939647  -1.649277
H    1.049441   0.993127   1.704684
H    5.349474  -1.038934  -1.604207
H    5.349380  -0.985813   1.722977
H    5.018583   3.752542   1.645630
H    5.018583   3.699498  -1.678133
H   14.172266   4.636726  -0.022072
H   14.172133   1.723884  -1.659633
H   14.172133   1.762113   1.681705

