%chk=mol_4699.chk
# wB97XD/Def2SVP opt pop=full gfinput

C 4 H 8 N 2 O 1

1 2
C    1.809148  -0.059394   0.195757
C    4.651088  -0.247535   0.053215
N    5.601091  -2.657749  -0.279018
C    6.069006   1.854029   0.274747
C    8.863552   1.847510   0.074852
N    9.967701   4.046716   0.818403
O   10.108239   0.060188  -0.703488
H    1.161596   1.881733   0.505199
H    1.093018  -1.217116   1.754800
H    0.957392  -0.733611  -1.565846
H    4.560079  -3.757928  -1.459927
H    7.481048  -2.646580  -0.769591
H    5.181818   3.674913   0.567844
H    9.014220   5.513956   1.574765
H   11.876986   4.120737   0.774882

