%chk=mol_4079.chk
# wB97XD/Def2SVP opt pop=full gfinput

C 5 H 9 N 1 O 1

1 2
C    1.729685   0.022544   0.286558
C    4.612954   0.008183   0.226975
C    5.611750   2.298720  -1.208877
O    8.197387   1.845242  -1.827497
N    8.399530   0.019823  -3.761613
C    7.176159  -2.036180  -3.241353
C    5.665229  -2.454490  -0.869822
H    1.018884   1.778024   1.122781
H    1.010418  -1.555585   1.417181
H    0.939062  -0.145112  -1.620289
H    5.280273   0.132697   2.187301
H    5.514807   3.995977  -0.027552
H    4.541484   2.684375  -2.943267
H    7.311294  -3.634529  -4.569736
H    4.158588  -3.807080  -1.304856
H    6.920177  -3.381079   0.494012

