%chk=mol_6880.chk
# wB97XD/Def2SVP opt pop=full gfinput

C 5 H 8 N 2

1 2
C    1.701018  -0.259365  -0.012340
C    4.482487   0.017310  -0.007124
C    6.050317   2.106912  -0.013719
C    5.375666   4.821901  -0.028686
N    8.542640   1.367765  -0.005197
C    8.504354  -1.110724   0.006387
N    6.090909  -2.017245   0.005631
H    0.762864   1.583515   0.004384
H    1.072212  -1.310185   1.654739
H    1.076256  -1.278324  -1.700546
H    7.070278   6.007761  -0.009600
H    4.241339   5.295447   1.634708
H    4.284614   5.286849  -1.723147
H   10.140894  -2.334454   0.015439
H    5.591246  -3.859558   0.013077

