%chk=mol_0662.chk
# wB97XD/Def2SVP opt pop=full gfinput

C 5 H 6 O 1

1 2
C    1.929165  -0.213388   0.308876
C    4.181775  -0.004044   0.115821
C    6.886313   0.251598  -0.135777
C    8.173009   2.169141   1.612541
C    9.850292  -0.050947   2.368507
O    8.170722  -1.822868   1.129962
H   -0.067236  -0.414852   0.479726
H    7.517916   0.371747  -2.106874
H    7.011829   2.913051   3.153632
H    9.144933   3.721853   0.659155
H   11.731136  -0.080351   1.509683
H    9.991379  -0.405290   4.398394

