%chk=mol_4510.chk
# wB97XD/Def2SVP opt pop=full gfinput

C 4 H 6 N 2 O 1

1 2
C    2.191175  -0.648781  -0.165672
C    4.665337  -0.893274  -0.627484
C    6.381700   1.305498  -0.417346
N    5.868242   3.570052  -1.125691
N    8.685692   0.720515   0.597361
C   10.629199   2.393130   0.963175
O   12.657783   1.752249   1.882167
H    0.938381  -2.263798  -0.330551
H    1.353498   1.131606   0.415967
H    5.473478  -2.693238  -1.178981
H    4.087988   3.653880  -1.886608
H    9.072235  -1.056489   1.168418
H   10.224344   4.345066   0.364642

