%chk=mol_4328.chk
# wB97XD/Def2SVP opt pop=full gfinput

C 5 H 11 N 1 O 1

1 2
C    1.902482  -0.777641   0.903969
C    4.229547  -0.926174  -0.807461
C    3.775975  -2.874160  -2.895854
C    4.857125   1.654323  -1.980357
C    5.941129   3.534393  -0.106505
N    6.265293   5.905073  -1.072646
O    6.540701   3.052078   2.072614
H    2.205518   0.523983   2.481796
H    1.467013  -2.635299   1.706631
H    0.238729  -0.132130  -0.144545
H    5.835134  -1.574614   0.332875
H    2.185808  -2.325554  -4.102917
H    3.356324  -4.733594  -2.089640
H    5.451444  -3.072562  -4.094697
H    3.168334   2.478943  -2.852995
H    6.281468   1.414328  -3.466627
H    5.901917   6.351596  -2.891697
H    7.025133   7.231812   0.074720

