%chk=mol_0299.chk
# wB97XD/Def2SVP opt pop=full gfinput

C 5 H 11 N 1

1 2
C    1.684426  -0.047810   0.168186
C    4.533718   0.003250   0.029499
N    5.460893   0.071885  -2.584749
C    5.964845   2.021308   1.596290
C    7.953139  -0.001380   2.270581
C    6.019836  -2.044192   1.499139
H    1.030468  -0.107336   2.132254
H    0.914722  -1.712432  -0.792929
H    0.857501   1.636711  -0.708987
H    7.376300   0.076137  -2.778049
H    4.826379   1.587238  -3.594221
H    4.911493   2.688324   3.253088
H    6.680843   3.676935   0.585229
H    9.641005   0.049794   1.071342
H    8.547326  -0.040780   4.249843
H    6.781339  -3.631090   0.411941
H    4.988046  -2.818357   3.122999

