%chk=mol_4061.chk
# wB97XD/Def2SVP opt pop=full gfinput

C 4 H 8 N 2 O 1

1 2
C    1.872397  -0.059243   0.125232
C    4.732195  -0.072225   0.173212
C    5.880582   2.104626   1.669157
O    8.118263   1.054203   2.791541
C    7.866514  -1.502427   2.766181
N    9.567230  -2.916773   3.725198
N    5.719049  -2.209695   1.558174
H    1.152412  -1.709219  -0.896316
H    1.162257   1.642040  -0.812488
H    1.078429  -0.122416   2.036463
H    5.493018  -0.095469  -1.754119
H    4.655038   2.790105   3.190330
H    6.393019   3.692676   0.448999
H    9.027146  -4.757594   3.537813
H    5.752345  -3.904288   0.676182

