%chk=mol_2920.chk
# wB97XD/Def2SVP opt pop=full gfinput

C 7 H 12

1 2
C    1.545626   0.474718   0.021297
C    4.432580   0.077819   0.026211
C    5.147028  -1.420337   2.417281
C    5.148654  -1.469432  -2.331865
C    5.720938   2.707637   0.000000
C    8.448437   2.624470   0.000813
C   10.696455   2.555911   0.001474
H    0.937418   1.514937  -1.662506
H    0.936189   1.549802   1.682858
H    0.537230  -1.334638   0.039854
H    4.690829  -0.350676   4.129921
H    7.166503  -1.868221   2.466490
H    4.117165  -3.215822   2.505588
H    4.694004  -0.435468  -4.067088
H    4.119187  -3.266637  -2.384324
H    7.168581  -1.918374  -2.370605
H    5.078922   3.797839   1.644326
H    5.079017   3.764297  -1.666134
H   12.709296   2.493116   0.002079

