%chk=mol_0893.chk
# wB97XD/Def2SVP opt pop=full gfinput

C 6 H 8

1 2
C    1.909266  -0.064402   0.458712
C    4.762110   0.000000   0.000000
C    5.392296  -1.443505  -2.389162
C    6.342072  -0.554616  -4.564029
C    5.672996   2.572238   0.000000
C    6.423746   4.692322   0.000000
H    1.425080   0.865192   2.245826
H    1.210955  -2.011897   0.555561
H    0.871485   0.908108  -1.049195
H    5.676322  -1.009170   1.565506
H    5.025935  -3.467458  -2.282865
H    6.768527   1.432148  -4.847885
H    6.713536  -1.819844  -6.136602
H    7.098038   6.589607  -0.002891

