%chk=mol_4692.chk
# wB97XD/Def2SVP opt pop=full gfinput

C 5 H 13 N 1 O 1

1 2
C    6.825200   3.081274  -6.847857
C    8.886494   3.664311  -4.926573
N    7.858124   3.423768  -2.369943
C    9.721299   3.757097  -0.308819
C   11.722028   1.679286  -0.222912
C   10.927757   6.409687  -0.309046
O    8.995115   8.286222  -0.438530
H    7.548927   3.340582  -8.768802
H    5.195594   4.334767  -6.607012
H    6.171940   1.124727  -6.673473
H    9.563715   5.589262  -5.264569
H   10.458028   2.356999  -5.237187
H    7.042990   1.683784  -2.181424
H    8.605567   3.615405   1.435266
H   13.011407   1.772563  -1.836889
H   10.842946  -0.194736  -0.201010
H   12.862100   1.851705   1.496380
H   12.203946   6.676894  -1.915067
H   12.009493   6.722890   1.425912
H    7.640881   7.500021  -1.424872

