%chk=mol_3043.chk
# wB97XD/Def2SVP opt pop=full gfinput

C 6 H 6 O 1

1 2
C    2.819830  -1.739720  -0.774240
C    5.249035  -1.044565  -0.657209
C    5.974766   1.599748   0.026966
O    4.352153   3.216692   0.431802
C    8.769558   2.232598   0.061000
C   10.218108   0.631036   1.809186
C   11.415325  -0.665070   3.239822
H    2.295450  -3.657603  -1.272504
H    1.301568  -0.415022  -0.373051
H    6.755242  -2.372211  -1.057907
H    8.972552   4.218662   0.613027
H    9.494098   2.061691  -1.870980
H   12.477994  -1.801438   4.518562

