%chk=mol_1375.chk
# wB97XD/Def2SVP opt pop=full gfinput

C 6 H 11 N 1

1 2
C    3.167729  -0.713995  -2.226645
C    4.380196   0.319931  -0.259554
C    5.596159   2.872516  -0.279491
N    8.320899   2.554532  -0.036283
C    9.597787   4.998666  -0.005310
C   12.394203   4.578825   0.073680
C   14.026908   5.450065  -1.653832
H    2.331431  -2.580119  -2.077641
H    3.001830   0.260215  -4.025683
H    4.509208  -0.735462   1.499025
H    4.845862   3.966403   1.310147
H    5.131268   3.891211  -2.022423
H    8.950801   1.563597  -1.564485
H    9.045779   6.071577   1.681818
H    9.076714   6.122070  -1.670896
H   13.107840   3.491628   1.665076
H   13.408117   6.545520  -3.271248
H   16.034250   5.069644  -1.478068

