%chk=mol_5657.chk
# wB97XD/Def2SVP opt pop=full gfinput

C 4 H 9 N 1 O 2

1 2
N    1.327400   1.590866   2.194652
C    3.276369   0.271686   0.760671
C    5.575958   1.916636   0.485697
C    7.130201   2.319318   2.831811
O    9.405563   3.663177   2.299135
C    6.702235   2.284263  -2.127000
O    5.168873   4.191432  -0.963836
H   -0.290867   0.546962   2.170672
H    0.911472   3.233907   1.268724
H    2.514583  -0.249841  -1.093018
H    3.778375  -1.486761   1.730819
H    7.661479   0.501401   3.666768
H    6.072730   3.396405   4.249843
H    8.860510   5.261489   1.552637
H    5.900367   1.268932  -3.713576
H    8.708255   2.648451  -2.313573

