%chk=mol_4006.chk
# wB97XD/Def2SVP opt pop=full gfinput

C 5 H 9 N 1 O 1

1 2
C    1.853387   0.016478   0.003250
C    4.722388  -0.033221   0.041291
C    5.871719   2.116569   1.570438
N    8.253077   1.113483   2.362630
C    8.270916  -1.490710   2.388897
O    9.963449  -2.797494   3.242033
C    5.804880  -2.410705   1.297562
H    1.112066  -1.576617  -1.088709
H    1.165885   1.764759  -0.863208
H    1.067525  -0.100174   1.914198
H    5.434040   0.067539  -1.906375
H    4.771540   2.574431   3.262026
H    6.167518   3.827489   0.451115
H    9.654346   2.094875   3.220339
H    6.133106  -3.912546  -0.082165
H    4.612878  -3.103214   2.839351

