%chk=mol_1588.chk
# wB97XD/Def2SVP opt pop=full gfinput

C 5 H 10 N 2

1 2
C    3.682264  -1.340647   2.478848
C    5.494360  -0.148098   0.664106
N    6.868096   1.754252   1.349813
N    8.417728   2.596635  -0.500097
C    9.762098   4.789567   0.534509
C   10.904778   6.675609  -1.259143
C    8.629075   7.383198   0.279226
H    4.250637  -3.300463   2.796511
H    1.793331  -1.326607   1.644534
H    3.656526  -0.325411   4.276242
H    5.594496  -0.983867  -1.248032
H    9.686282   1.242060  -1.041485
H   10.824786   4.414098   2.254802
H   10.640916   6.400446  -3.270851
H   12.704062   7.508354  -0.748558
H    8.876157   8.679115   1.843995
H    6.825048   7.549569  -0.675086

