%chk=mol_3482.chk
# wB97XD/Def2SVP opt pop=full gfinput

C 5 H 10 O 2

1 2
C    4.627183   1.616245   3.712651
O    4.676789   1.415745   1.037479
C    5.570119   3.686421  -0.120187
O    8.154395   4.149631   0.481030
C    9.300646   6.262061  -0.517596
C   12.008926   6.513792   0.293210
C    8.220139   7.969164  -2.051903
H    3.848049  -0.138026   4.479067
H    3.415586   3.184056   4.306308
H    6.535826   1.863648   4.468862
H    4.372297   5.268594   0.481143
H    5.373021   3.420083  -2.164058
H   12.129434   6.601910   2.356432
H   12.901576   8.219024  -0.466989
H   13.100716   4.880766  -0.356440
H    6.277387   7.853040  -2.686435
H    9.291179   9.578663  -2.745848

