%chk=mol_0441.chk
# wB97XD/Def2SVP opt pop=full gfinput

C 4 H 10 N 2

1 2
C    4.133606  -0.469087   2.774061
C    4.569641   0.298633   0.042311
N    5.681594   2.825764  -0.102858
C    3.941818   4.950270   0.021203
C    8.247199   3.137134   0.051854
N    9.521441   5.204249   0.085586
H    3.305830  -2.363235   2.864352
H    2.844000   0.842043   3.724858
H    5.909722  -0.491574   3.837883
H    2.778445   0.240921  -0.997095
H    5.811966  -1.081264  -0.878231
H    1.966241   4.347919  -0.114952
H    4.297199   6.261494  -1.538785
H    4.169945   5.964127   1.809923
H    9.291425   1.334336   0.155543
H    8.328930   6.712156  -0.039665

