%chk=mol_6351.chk
# wB97XD/Def2SVP opt pop=full gfinput

C 4 H 7 N 1 O 2

1 2
O    1.501009   3.441437  -0.047262
N    3.827451   3.061470  -1.252378
C    5.530737   2.627513   0.449774
C    8.317195   2.148486  -0.296536
C    9.703157   4.191904  -1.812304
C   11.658854   4.094432   0.295818
O   10.082879   2.448783   1.801551
H    0.362979   3.749330  -1.465728
H    5.080245   2.600018   2.487069
H    8.545549   0.252581  -1.109912
H    8.713962   5.999011  -1.973517
H   10.381721   3.596905  -3.669924
H   13.447669   3.181467  -0.192790
H   12.019603   5.892261   1.248107

