%chk=mol_3954.chk
# wB97XD/Def2SVP opt pop=full gfinput

C 6 H 9 N 1

1 2
C   -1.937612  -0.000038  -2.254840
C   -0.999023   1.917694  -0.117806
C   -2.555004  -0.000151   1.629927
C   -1.000175  -1.917392  -0.117919
C    1.841954  -1.495832   0.436546
N    3.509448  -0.000794  -1.109137
C    1.840366   1.495832   0.436754
H   -3.962529   0.000189  -2.691253
H   -0.888152   0.000132  -4.032940
H   -1.656912   3.867570  -0.218150
H   -2.060501  -0.000038   3.636853
H   -4.615864   0.000113   1.435814
H   -1.657365  -3.867532  -0.218396
H    2.490905  -2.421004   2.139737
H    2.991077  -0.000057  -2.963487
H    2.491528   2.420380   2.140153

