%chk=mol_3427.chk
# wB97XD/Def2SVP opt pop=full gfinput

C 5 H 8 O 2

1 2
C    8.084381  -0.791512   2.884195
O    7.454781   1.742989   3.521788
C    5.982873   2.950958   1.622594
C    4.749751   5.307863   2.655462
C    5.024555   6.261777   4.991164
C    7.608888   3.750502  -0.607812
O    6.902584   3.652141  -2.823194
H    9.079076  -1.633441   4.487381
H    9.339877  -0.836298   1.240511
H    6.380641  -1.904560   2.511276
H    4.481240   1.674354   0.959168
H    3.520333   6.308756   1.339608
H    6.211965   5.348133   6.399047
H    4.047226   7.977498   5.549332
H    9.468946   4.551557  -0.110625

