%chk=mol_0255.chk
# wB97XD/Def2SVP opt pop=full gfinput

C 5 H 7 N 1

1 2
C    1.948553   0.012113  -0.121755
C    4.764038  -0.004762  -0.024869
C    6.250156  -1.339910  -2.045099
C    6.281620   1.514313  -1.912346
C    8.537424   2.776310  -1.086082
N   10.359535   3.797291  -0.422222
H    1.200071   1.449685   1.164884
H    1.204360  -1.828045   0.465723
H    1.235314   0.417459  -2.022328
H    5.448723  -0.156564   1.903068
H    5.238245  -2.212019  -3.598587
H    7.924736  -2.374384  -1.469394
H    5.245558   2.504227  -3.378755

