%chk=mol_1724.chk
# wB97XD/Def2SVP opt pop=full gfinput

C 5 H 12 N 2

1 2
C    4.660707  -2.159787  -0.246156
N    7.084961  -0.821256  -0.292511
C    8.085552  -0.807896  -2.871156
C    6.736495   1.755782   0.701863
C    9.220106   3.099245   1.011589
C   10.052380   5.075219  -0.866798
N    9.226172   5.796772   1.658461
H    3.927966  -2.280805   1.687110
H    4.889440  -4.108151  -0.910999
H    3.234304  -1.233084  -1.427764
H    8.259388  -2.742843  -3.591065
H    9.994742  -0.011546  -2.927110
H    6.885387   0.263088  -4.175274
H    5.877955   1.639356   2.586449
H    5.435608   2.847231  -0.491537
H   10.630277   1.956074   1.961366
H    8.789060   5.579889  -2.397155
H   12.049631   5.255215  -1.276926
H   10.736706   6.210150   2.789633

