%chk=mol_0926.chk
# wB97XD/Def2SVP opt pop=full gfinput

C 6 H 8

1 2
C    1.709427   0.098568  -0.019332
C    4.549893   0.014343  -0.010979
C    5.702324  -2.587999  -0.017045
C    5.931888   2.150489   0.000000
C    8.588843   2.150489   0.000000
C   10.837919   2.150489   0.000000
H    0.982714   2.035462  -0.016781
H    0.961927  -0.857236   1.655929
H    0.972170  -0.849300  -1.703683
H    4.243531  -4.053576   0.051098
H    6.919119  -2.859704   1.633290
H    6.805830  -2.895949  -1.738643
H    5.001085   3.980689   0.004384
H   12.850384   2.147050  -0.000000

