%chk=mol_0053.chk
# wB97XD/Def2SVP opt pop=full gfinput

C 4 H 10

1 2
C    1.866747  -0.014438  -0.001455
C    4.752226   0.016497  -0.011811
C    5.773548  -1.411418  -2.301724
C    5.737738   2.728216   0.015212
H    1.127581   0.960567   1.668023
H    1.152903  -1.956963   0.034034
H    1.096155   0.919541  -1.680987
H    5.420377  -0.937285   1.702568
H    5.157063  -0.534774  -4.072946
H    5.116320  -3.373955  -2.296660
H    7.842949  -1.438195  -2.287551
H    5.122405   3.770514  -1.664301
H    7.806591   2.757205   0.063740
H    5.052410   3.742225   1.684143

