%chk=mol_3441.chk
# wB97XD/Def2SVP opt pop=full gfinput

C 5 H 12 O 2

1 2
C    3.887960   1.619306  -0.707211
O    6.056799   3.209246  -0.762467
C    7.912586   2.297945  -2.509160
C   10.310742   3.920010  -2.310398
C   12.342217   2.892018  -4.083982
C    9.789840   6.716484  -2.898764
O    8.144965   7.829986  -1.089181
H    2.531534   2.421004   0.627994
H    4.399812  -0.278810  -0.068370
H    3.006970   1.531075  -2.576226
H    7.128784   2.386176  -4.427685
H    8.361981   0.328718  -2.064658
H   10.987113   3.810160  -0.356818
H   11.689241   2.879092  -6.048220
H   12.851253   0.953197  -3.567198
H   14.062019   4.040858  -3.989514
H    8.938991   6.940548  -4.772617
H   11.553446   7.799032  -2.866167
H    6.854263   6.564153  -0.687010

