%chk=mol_0448.chk
# wB97XD/Def2SVP opt pop=full gfinput

C 4 H 8 N 2

1 2
C    1.459757   0.375148  -0.063665
C    4.262542   0.043256  -0.197646
N    5.769145   1.729270   0.730285
N    8.274903   1.017259   0.387658
C    9.781411   2.705256   1.312812
C   12.584291   2.373231   1.177696
H    0.647798  -1.216077   0.973077
H    0.694739   0.373145  -1.982209
H    0.965971   2.143762   0.879554
H    4.968827  -1.691569  -1.117452
H    9.075561   4.441763   2.230028
H   13.077604   0.601027   0.240260
H   13.351180   2.382038   3.095541
H   13.395474   3.960658   0.134492

