%chk=mol_1263.chk
# wB97XD/Def2SVP opt pop=full gfinput

C 6 H 9 N 1

1 2
C    1.814024   0.040365   0.385693
C    4.628601  -0.108886  -0.033316
C    5.709448  -2.315670  -0.693964
C    6.188910   2.271677   0.315376
N    5.409870   4.245893  -1.437042
C    6.002998   3.205996   2.929075
C    5.863555   3.978762   5.058136
H    0.939988   1.351740  -0.953405
H    1.383412   0.671401   2.307261
H    0.897809  -1.798396   0.127197
H    4.604072  -4.027365  -0.939326
H    7.733307  -2.474823  -0.998871
H    8.183308   1.861683  -0.075173
H    3.636532   4.823810  -0.977442
H    5.312606   3.489190  -3.200856
H    5.745485   4.672612   6.945254

