%chk=mol_1677.chk
# wB97XD/Def2SVP opt pop=full gfinput

C 6 H 13 N 1

1 2
C    4.032789  -0.840909  -2.534954
N    4.306497   0.275957  -0.028705
C    6.038034   2.429432  -0.157924
C    4.573308   4.835658  -0.934848
C    6.016831   6.218030   1.194912
C    6.256071   3.615103   2.526280
C    8.704740   3.138363   3.934108
H    2.702989  -2.421514  -2.438748
H    5.837062  -1.568756  -3.238443
H    3.277673   0.520998  -3.896199
H    4.891480  -1.096022   1.193457
H    7.841835   2.122314  -1.129735
H    2.523843   4.790947  -0.626992
H    4.943769   5.530529  -2.844983
H    7.815832   7.040798   0.575441
H    4.940046   7.654033   2.217405
H    4.623782   3.244811   3.759232
H   10.357136   3.539967   2.754446
H    8.819957   1.164619   4.543733
H    8.817916   4.331970   5.620027

