%chk=mol_3026.chk
# wB97XD/Def2SVP opt pop=full gfinput

C 6 H 10 O 1

1 2
C    7.908183  -1.205948   4.638692
C    6.542761  -2.011519   2.287230
C    4.442633  -3.422011   2.379808
O    7.467725  -1.345334  -0.081542
C    9.564281   0.384975  -0.114064
C   12.164016  -0.759481  -0.238389
C   11.029878   0.415626  -2.553700
H    9.856471  -1.899628   4.632985
H    7.001511  -1.955961   6.342431
H    7.922110   0.854629   4.815419
H    3.623531  -4.029368   4.154015
H    3.500888  -3.997602   0.653335
H    9.328331   2.212926   0.788035
H   12.318331  -2.800782  -0.176104
H   13.687135   0.233154   0.701429
H   11.780855   2.209146  -3.193051
H   10.410936  -0.826566  -4.059755

