%chk=mol_0163.chk
# wB97XD/Def2SVP opt pop=full gfinput

C 4 H 11 N 1

1 2
C    1.871490   0.007464  -0.009675
C    4.767515  -0.018576   0.020277
C    5.725114  -1.334203   2.416204
C    5.776250  -1.375626  -2.332924
N    5.673411   2.601888   0.030028
H    1.139448   0.957562  -1.698637
H    1.106794   0.989442   1.646443
H    1.113332  -1.919168   0.001077
H    5.048214  -0.379192   4.125216
H    7.794837  -1.363286   2.488864
H    5.069587  -3.296401   2.495837
H    5.129775  -0.455386  -4.072076
H    5.129378  -3.341452  -2.387858
H    7.846918  -1.397301  -2.363934
H    5.100900   3.498601  -1.576712
H    7.600101   2.628685  -0.001266

