%chk=mol_6124.chk
# wB97XD/Def2SVP opt pop=full gfinput

C 4 H 7 N 1 O 2

1 2
O    2.533915  -0.626217  -1.619741
C    4.497662   1.137653  -2.104852
C    4.425947   3.134375  -0.125119
C    5.920852   2.902222   2.241102
N    6.637814   4.652657   0.290130
C    6.400370   7.235100   0.677996
O    4.711900   8.327418   1.824984
H    2.538205  -1.825589  -3.011316
H    4.187104   1.975557  -3.970201
H    6.301084   0.122284  -2.123825
H    2.637132   4.130639  -0.067388
H    7.232700   1.353970   2.470798
H    5.186240   3.740429   3.956652
H    7.983450   8.254815  -0.214030

