%chk=mol_5697.chk
# wB97XD/Def2SVP opt pop=full gfinput

C 5 H 3 N 1 O 1

1 2
N    1.597386   0.149572  -0.192204
C    3.787616   0.075079  -0.132224
C    6.682204  -0.038343  -0.043142
C    8.948571  -0.127651   0.026078
C   11.646212  -0.223819   0.110171
C   13.080098  -1.510742  -1.982020
O   12.816501   1.181608  -1.890028
H   12.530264  -0.129730   1.955356
H   12.046778  -2.513336  -3.436335
H   14.922128  -2.293069  -1.554999

