%chk=mol_2003.chk
# wB97XD/Def2SVP opt pop=full gfinput

C 4 H 3 N 3

1 2
N    1.717591   0.039760  -0.013323
C    3.909995   0.040138  -0.006765
C    6.599963   0.042179   0.001285
C    8.167339   2.117098   0.007464
N   10.573169   1.181854   0.013984
N   10.665803  -1.358165   0.012434
C    8.235899  -2.048860   0.004668
H    7.801942   4.126954   0.007823
H   12.229551   2.152455   0.019653
H    7.772236  -4.042578   0.001833

