%chk=mol_2880.chk
# wB97XD/Def2SVP opt pop=full gfinput

C 6 H 12 O 1

1 2
C    1.217626   0.894729  -1.886003
C    3.540326  -0.489363  -0.907239
C    5.724377   1.343765  -0.417648
C    8.055883   0.026135   0.581185
C    8.943847   0.516783   2.907041
O    9.122804  -1.606910  -1.145665
C   11.377493  -2.892453  -0.441667
H   -0.310520  -0.446032  -2.266689
H    1.640018   1.902123  -3.642995
H    0.534547   2.268654  -0.498340
H    4.102236  -1.920642  -2.296433
H    3.047901  -1.493413   0.837413
H    5.096327   2.808832   0.908883
H    6.222169   2.324987  -2.175037
H    7.988760   1.854898   4.136497
H   10.622075  -0.364566   3.676764
H   11.926723  -4.121134  -2.010839
H   11.066463  -4.086098   1.219270
H   12.917885  -1.550823  -0.113232

