%chk=mol_3614.chk
# wB97XD/Def2SVP opt pop=full gfinput

C 5 H 8 O 2

1 2
O    2.084576   0.040894   1.223106
C    4.623291   0.017291   0.299219
C    5.095930   2.258601  -1.464462
O    7.532222   2.238948  -2.634996
C    8.204095  -0.061170  -3.610397
C    7.140387  -2.266160  -3.020387
C    5.096044  -2.486898  -1.079147
H    1.760337   1.705421   1.940957
H    5.901293   0.141503   1.926217
H    4.937061   4.024625  -0.390399
H    3.637515   2.366107  -2.939809
H    9.768297   0.131771  -4.919467
H    7.793117  -3.992462  -3.922883
H    3.364506  -3.161795  -1.984931
H    5.621123  -3.926208   0.312315

