%chk=mol_5900.chk
# wB97XD/Def2SVP opt pop=full gfinput

C 4 H 8 N 2 O 1

1 2
N    1.630002   3.701199  -0.976629
N    4.003082   3.204012  -1.775946
C    5.561218   2.767674   0.064194
C    8.380747   2.181840  -0.474321
C    9.958668   4.198008  -1.828650
C   11.688504   4.053822   0.465893
O    9.985351   2.359776   1.760393
H    0.563875   4.311429  -2.471913
H    0.748955   2.089376  -0.370084
H    4.980997   2.812706   2.068173
H    8.595665   0.297783  -1.317101
H    9.031700   6.027792  -2.085124
H   10.810102   3.590423  -3.610019
H   13.525904   3.168844   0.135607
H   11.932940   5.826990   1.496550

