%chk=mol_5334.chk
# wB97XD/Def2SVP opt pop=full gfinput

C 5 H 7 N 1 O 1

1 2
C    2.220050   0.210421  -1.445754
O    4.290793   0.314148   0.276278
C    5.693480   2.529984   0.132205
C    4.259424   4.987705   0.164161
C    8.221140   2.322133   0.152539
C    9.916904   4.399717   0.080994
N   11.304965   6.092761   0.013058
H    1.500575  -1.727607  -1.457621
H    2.822004   0.687823  -3.367719
H    0.687558   1.454995  -0.830081
H    2.785249   4.932639   1.615791
H    3.368947   5.334281  -1.670159
H    5.462839   6.613134   0.592920
H    9.071404   0.457824   0.211782

