%chk=mol_6818.chk
# wB97XD/Def2SVP opt pop=full gfinput

C 5 H 6 N 2

1 2
C    1.759203   0.115878   0.343042
C    4.231342   0.099400  -0.150271
C    5.857660   2.318940   0.067747
N    8.185614   1.819617  -0.544808
N    8.411870  -0.645285  -1.451234
C    8.264698  -2.441262   0.630677
C    5.937784  -1.896472  -0.922961
H    0.644302  -1.596592   0.167430
H    0.786050   1.824965   0.924454
H    5.140905   4.136573   0.766473
H    9.227249  -4.220344   0.318249
H    8.429823  -1.719745   2.539622
H    5.334187  -3.217580  -2.360873

