%chk=mol_3661.chk
# wB97XD/Def2SVP opt pop=full gfinput

C 5 H 6 O 2

1 2
O    1.664716   0.398524   1.831787
C    3.486960   0.242490   0.395784
C    5.593835   2.231578   0.092956
C    4.752283   5.003277  -0.446240
C    6.814277   5.812778   1.445055
O    7.958166   7.759348   1.824190
C    6.958917   3.122054   2.548258
H    3.699687  -1.440841  -0.814207
H    6.972220   1.588901  -1.325983
H    2.844907   5.499235   0.176595
H    5.059421   5.652662  -2.380696
H    8.874853   2.398856   2.798496
H    5.882963   2.908326   4.299826

