%chk=mol_0923.chk
# wB97XD/Def2SVP opt pop=full gfinput

C 4 H 8 O 2

1 2
O    0.602123   0.157301   0.701240
C    3.091686  -0.700899   0.159890
C    4.883411   1.536328  -0.126952
O    7.355249   0.595491  -0.667319
C    9.234941   2.333018  -0.986437
C    9.112505   4.854517  -0.866912
H   -0.452136  -1.340099   0.865646
H    3.054232  -1.823435  -1.579282
H    3.725028  -1.940786   1.691985
H    4.890328   2.636754   1.629435
H    4.215695   2.755221  -1.665113
H   10.994067   1.357182  -1.382486
H    7.383311   5.876973  -0.475663
H   10.804358   5.976391  -1.170459

