%chk=mol_2249.chk
# wB97XD/Def2SVP opt pop=full gfinput

C 6 H 8 O 1

1 2
C    1.943980   0.212991  -1.072457
C    4.077916  -0.094354   0.761238
C    4.683497  -2.683487   2.141098
C    7.257399  -1.170156   2.215043
O    6.611906  -0.587554  -0.530692
C    6.751802   1.180361   3.668053
C    4.548571   1.932755   2.666876
H    0.120130   0.239296  -0.094770
H    1.897531  -1.345107  -2.434326
H    2.118232   1.974764  -2.144707
H    4.656890  -4.384146   0.965442
H    3.745078  -3.033521   3.947789
H    9.036897  -2.175585   2.461425
H    7.888378   2.051865   5.111124
H    3.427642   3.576741   3.086036

