%chk=mol_6268.chk
# wB97XD/Def2SVP opt pop=full gfinput

C 4 H 5 N 1 O 2

1 2
O    5.558157  -0.460810   4.105222
C    5.952959   1.804972   3.961112
C    7.391551   2.985711   1.786793
O    6.725762   5.047402   0.986872
N    9.469398   1.570854   1.022569
C   11.754720   2.813915   0.247932
C   10.157807   1.432280  -1.597234
H    5.302761   3.190311   5.374475
H   13.445911   1.926727   0.969543
H   11.706551   4.858921   0.265450
H    8.972703   2.493342  -2.881700
H   10.714218  -0.440023  -2.191969

