%chk=mol_1872.chk
# wB97XD/Def2SVP opt pop=full gfinput

C 6 H 7 N 1

1 2
N   -2.514318   1.564070   1.056603
C   -2.127359  -0.734026  -0.414020
C   -0.383992  -2.652438   0.595377
C    2.131573  -2.309869   0.773503
C    3.263103   0.074493   0.029763
C    1.814439   1.973498  -0.847297
C   -0.938022   1.768708  -1.194553
H   -4.265093   2.293201   0.726959
H   -3.720965  -1.432223  -1.493318
H   -1.199882  -4.429461   1.217135
H    3.352204  -3.768548   1.536366
H    5.286433   0.303396   0.266036
H    2.693087   3.761386  -1.337737
H   -1.728476   2.761476  -2.801179

