%chk=mol_4904.chk
# wB97XD/Def2SVP opt pop=full gfinput

C 4 H 8 N 2 O 1

1 2
C    1.584025  -0.596454  -0.006047
C    4.446979  -0.605090   0.206245
O    5.488332  -1.861701  -1.920585
C    5.406790   2.088847   0.415173
N    6.124149   3.315203  -1.578998
N    6.848935   5.758411  -0.943332
C    7.578142   6.985807  -2.920629
H    0.710310   0.355231   1.608913
H    0.858937  -2.531024  -0.114442
H    0.972850   0.371350  -1.732066
H    5.029695  -1.625089   1.906809
H    5.629721  -0.584530  -3.245869
H    5.366104   2.962429   2.310020
H    8.217399   8.956773  -2.738648
H    7.598513   6.156123  -4.832691

