%chk=mol_0012.chk
# wB97XD/Def2SVP opt pop=full gfinput

C 2 H 7 N 1

1 2
C    1.897191   0.010129   0.009600
C    4.766891   0.035376   0.023092
N    5.705102   2.623469   0.042972
H    1.201507  -1.938084   0.002853
H    1.145609   0.960189  -1.668798
H    1.132551   0.954009   1.685144
H    5.486385  -0.953046  -1.646518
H    5.465182  -0.958847   1.697371
H    5.107136   3.543501  -1.540070
H    7.629183   2.606405  -0.037058

