%chk=mol_1794.chk
# wB97XD/Def2SVP opt pop=full gfinput

C 5 H 10 N 2

1 2
C    2.181122   2.180498   3.430420
N    3.343663   4.499079   2.569309
C    5.689852   4.527878   1.424910
C    6.569198   6.922275   0.173156
C    5.671465   9.201662   0.814000
N    7.019123   2.474105   1.451933
C    9.528188   2.405225   0.342721
H    0.386090   2.610619   4.362131
H    3.385123   1.205059   4.800395
H    1.795202   0.917821   1.838741
H    2.102472   5.806864   1.929845
H    8.009170   6.758511  -1.270803
H    4.293949   9.461500   2.308338
H    6.372950  10.887280  -0.119374
H   10.426715   0.606980   0.831158
H   10.746948   3.906669   1.078807
H    9.441052   2.508668  -1.721219

