%chk=mol_1063.chk
# wB97XD/Def2SVP opt pop=full gfinput

C 4 H 9 N 1 O 1

1 2
C    2.592478  -0.140255  -0.412433
O    5.186750   0.344384   0.101932
C    6.002998   2.823629   0.027061
C    4.534644   4.858599  -0.373051
C    8.811151   3.087775   0.485962
N   10.265881   1.847283  -1.507586
H    2.299079  -2.185071  -0.329965
H    2.079738   0.499096  -2.312250
H    1.380369   0.733705   1.018090
H    2.518646   4.744082  -0.700049
H    5.348719   6.742146  -0.406820
H    9.274057   2.225984   2.312439
H    9.380960   5.074425   0.588215
H    9.596596   0.044862  -1.667381
H   12.094304   1.689226  -0.934866

