%chk=mol_1199.chk
# wB97XD/Def2SVP opt pop=full gfinput

C 7 H 12

1 2
C    1.843617   0.058846  -0.040799
C    4.724145   0.017820   0.000869
C    5.771243  -2.402352   1.218552
C    6.401579  -1.720803   3.953987
C    6.731809   1.075651   3.832138
C    5.807866   2.038750   1.679645
C    5.789875   4.753909   0.949209
H    1.115505  -1.491315  -1.203283
H    1.139146   1.833110  -0.840777
H    1.042656  -0.143166   1.858338
H    5.450443   0.191335  -1.930563
H    7.515687  -2.960710   0.240071
H    4.473587  -4.010471   1.098441
H    8.121967  -2.675984   4.583323
H    4.853081  -2.205254   5.236696
H    7.565575   2.175037   5.340366
H    5.246182   4.985268  -1.033094
H    7.667961   5.590434   1.181136
H    4.439288   5.808753   2.106874

