%chk=mol_7128.chk
# wB97XD/Def2SVP opt pop=full gfinput

C 6 H 13 N 1

1 2
C    2.112204  -0.637121   0.918671
C    4.563726   0.122832  -0.438360
C    5.536501  -2.158426  -1.939067
C    4.365135   2.483365  -2.109199
C    2.181840   3.697646  -2.598600
C    6.797175   3.467704  -3.248401
N    8.609895   4.151615  -1.296277
H    1.389194   0.912114   2.085124
H    2.448386  -2.246299   2.177985
H    0.637877  -1.195951  -0.423507
H    5.939447   0.528556   1.061025
H    4.311599  -2.574865  -3.554972
H    5.612751  -3.847388  -0.743815
H    7.452891  -1.839932  -2.649415
H    0.378644   3.087397  -1.840782
H    2.128569   5.369128  -3.788901
H    6.446120   5.132666  -4.431257
H    7.623703   2.039355  -4.495847
H    7.850508   5.560198  -0.225274
H   10.173681   4.898680  -2.131479

