%chk=mol_2680.chk
# wB97XD/Def2SVP opt pop=full gfinput

C 5 H 6 O 2

1 2
C    3.140989  -0.736634  -2.347985
C    4.046282   0.486302  -0.320630
C    6.104061   2.457381  -0.280265
O    7.038436   3.009030  -2.794300
C    6.700648   5.583007  -2.886991
C    5.655591   6.508935  -0.827719
O    5.134102   4.700675   0.960000
H    1.641756  -2.123315  -2.156933
H    3.862449  -0.375640  -4.235235
H    3.243828   0.051325   1.520285
H    7.696439   1.751795   0.845766
H    7.287691   6.516910  -4.590580
H    5.143400   8.420336  -0.366626

