%chk=mol_3767.chk
# wB97XD/Def2SVP opt pop=full gfinput

C 5 H 10 O 2

1 2
O    1.554772   0.335823   0.121131
C    4.193472  -0.164822   0.378078
C    5.666136   2.310436   0.781931
C    4.669381   3.768700   3.093803
O    2.174111   4.697311   2.681370
C    8.456487   1.764475   1.055620
C   10.230240   2.644615  -0.521300
H    0.755286  -1.263528  -0.324938
H    4.838871  -1.118283  -1.343312
H    4.446223  -1.456261   1.976502
H    5.323661   3.502532  -0.883239
H    5.867694   5.405051   3.503136
H    4.639599   2.569725   4.783256
H    1.255421   3.345628   1.803706
H    9.035782   0.593790   2.644313
H    9.759112   3.832572  -2.125715
H   12.213205   2.199962  -0.226767

