%chk=mol_5237.chk
# wB97XD/Def2SVP opt pop=full gfinput

C 6 H 11 N 1

1 2
C    1.909020   0.006595   0.097019
C    4.778796  -0.002948  -0.100930
C    6.117630  -1.823964  -2.011613
C    8.947021  -1.422775  -1.615905
C    8.960231   1.465161  -1.534854
C    6.134656   1.913329  -1.903975
N    5.338079   0.106335  -3.996525
H    1.276000   1.621952   1.224637
H    1.251018  -1.717081   1.033945
H    0.975155   0.120092  -1.745049
H    5.559007  -0.065498   1.823453
H    5.385719  -3.735951  -2.241026
H    9.619084  -2.255709   0.154523
H   10.075850  -2.162678  -3.184226
H   10.094028   2.280918  -3.061867
H    9.641931   2.192366   0.277714
H    5.419394   3.841322  -2.024312
H    6.460350   0.145830  -5.561861

