%chk=mol_3866.chk
# wB97XD/Def2SVP opt pop=full gfinput

C 4 H 4 N 2 O 1

1 2
C    3.924867   0.254811   1.047437
O    2.879961   1.123896  -1.346354
C    4.785542   2.785041  -1.581172
C    4.902573   5.321261  -1.924232
N    6.335571   6.114436   0.112193
N    6.685114   4.276432   1.893997
C    5.887121   2.210999   0.695117
H    4.581905  -1.700905   0.912398
H    2.668312   0.495921   2.668993
H    3.966875   6.650778  -3.159660
H    6.853508   7.906236   0.558471

