%chk=mol_6526.chk
# wB97XD/Def2SVP opt pop=full gfinput

C 4 H 2 N 2 S 1

1 2
C    1.803933  -0.049889  -0.004290
C    4.069998   0.047942  -0.000208
C    6.760703   0.158813   0.004687
C    8.175711   2.347116   0.000775
S   11.290546   1.439329   0.009524
N   10.578309  -1.646670   0.017593
N    8.113067  -2.074674   0.014097
H   -0.206623  -0.156072  -0.007842
H    7.580920   4.297502  -0.006312

