%chk=mol_1622.chk
# wB97XD/Def2SVP opt pop=full gfinput

C 5 H 10 N 2

1 2
C    2.190741  -0.003704  -0.088401
N    4.941237  -0.212726  -0.086909
C    5.949897  -1.430920  -2.330543
C    6.160431   1.407619  -1.984250
C    8.607967   2.731769  -1.255836
C   11.169150   1.981945  -2.269183
N    9.914297   4.247140  -3.182809
H    1.616528   1.602601   1.082889
H    1.367916  -1.710542   0.742965
H    1.351305   0.249557  -1.966921
H    4.654169  -2.139510  -3.746892
H    7.621908  -2.574695  -2.045307
H    4.907354   2.549505  -3.151251
H    8.589750   3.578877   0.619547
H   11.284273   0.426171  -3.591500
H   12.804198   2.242595  -1.068376
H   10.668902   5.832300  -2.380790

