%chk=mol_5726.chk
# wB97XD/Def2SVP opt pop=full gfinput

C 4 H 10 N 2 O 1

1 2
N    2.979890  -3.872710  -1.209160
C    2.917681  -1.608951   0.373296
C    5.062898   0.221665  -0.262880
C    7.712331  -0.925323  -0.231416
C    8.363664  -2.061994   2.302216
N    7.793174  -4.565144   2.537675
O    9.275872  -0.856046   4.052348
H    1.393295  -4.915442  -0.858635
H    2.835156  -3.345495  -3.062736
H    3.010069  -2.170710   2.361383
H    1.104432  -0.644737   0.108017
H    4.987932   1.794616   1.085402
H    4.728359   1.037308  -2.139926
H    9.119157   0.537797  -0.648667
H    7.917972  -2.360192  -1.711204
H    6.531120  -5.361267   1.326134
H    8.009944  -5.348095   4.266510

