%chk=mol_4694.chk
# wB97XD/Def2SVP opt pop=full gfinput

C 6 H 11 N 1

1 2
C   -2.341049  -1.464670  -1.001593
C   -2.277139   1.423833  -0.972189
N   -0.010960   2.052450   0.577349
C    2.276610   1.430466  -0.940857
C    2.355865  -1.460059  -0.959074
C   -0.004290  -2.118289   0.570527
C   -0.022677   0.001550   2.501034
H   -2.247092  -2.237379  -2.917548
H   -4.061135  -2.160505  -0.083734
H   -3.977099   2.178061  -0.058619
H   -2.185468   2.240724  -2.872384
H    3.961735   2.197033  -0.010734
H    2.203572   2.238966  -2.846117
H    4.063516  -2.141929  -0.007483
H    2.304011  -2.238362  -2.876088
H   -0.008466  -4.037230   1.327117
H   -1.718158   0.049454   3.690748
H    1.653454   0.055123   3.716524

