%chk=mol_6393.chk
# wB97XD/Def2SVP opt pop=full gfinput

C 4 H 5 N 1 O 2

1 2
O    1.629284   1.724035  -1.514880
N    4.211822   1.614374  -2.071820
C    5.479469   2.028205  -0.011282
C    8.350530   2.079757   0.000000
O    9.347284   0.766870  -2.116588
C    9.261396   4.651996   0.000000
C   10.012166   6.772079   0.000000
H    0.848563   1.373925  -3.149266
H    4.526593   2.428846   1.802081
H    8.977144   1.088350   1.703928
H    8.281650   1.261695  -3.538455
H   10.696681   8.666435  -0.013663

