%chk=mol_3953.chk
# wB97XD/Def2SVP opt pop=full gfinput

C 4 H 7 N 1 O 2

1 2
C    1.633196   0.236669   0.222648
C    4.483867   0.056881   0.117390
C    6.008441   2.012766   1.670726
C    7.422825  -0.334255   2.659090
O    9.498614  -0.787014   3.496315
N    5.459551  -1.862420   1.905581
O    6.301198  -4.090747   0.695344
H    0.763827  -1.434075  -0.635231
H    0.976856   1.894035  -0.827341
H    0.934583   0.397202   2.164284
H    5.201471  -0.214314  -1.810943
H    4.981167   3.037432   3.142823
H    7.163347   3.310252   0.556846
H    5.998312  -5.337683   2.017169

