%chk=mol_6856.chk
# wB97XD/Def2SVP opt pop=full gfinput

C 5 H 12 N 2

1 2
C    1.717345  -0.041706   0.105957
C    4.572533  -0.047923   0.047168
N    5.578755  -0.004535  -2.565908
C    6.001090   1.980225   1.618645
C    7.969523  -0.062229   2.338782
C    5.955321  -2.077659   1.697465
N    7.094485  -4.043239   0.119468
H    1.008925  -0.048774   2.051109
H    0.945789  -1.711846  -0.843271
H    0.948907   1.638808  -0.827662
H    7.460374   0.413510  -2.667613
H    4.719156   1.312188  -3.683379
H    4.929577   2.670788   3.255186
H    6.743941   3.623153   0.604826
H    9.656520  -0.037076   1.134214
H    8.582456  -0.023092   4.312638
H    4.909886  -2.764896   3.346062
H    7.222288  -3.421935  -1.714492
H    5.958098  -5.594080  -0.034128

