%chk=mol_5955.chk
# wB97XD/Def2SVP opt pop=full gfinput

C 5 H 7 N 1 O 1

1 2
O    2.922821   0.318627   2.466886
C    4.513630   0.110133   0.814075
C    5.659238  -2.346152  -0.180866
C    7.500871  -1.556038  -2.216573
C    9.820075  -0.013474  -1.636805
C    7.401150   1.282387  -2.344791
N    5.614641   2.089036  -0.505351
H    4.152541  -3.519501  -0.970185
H    6.623793  -3.338995   1.352458
H    7.400451  -2.644426  -3.939021
H   10.464585   0.107866   0.304076
H   11.338848  -0.016441  -3.012356
H    7.242092   2.169160  -4.184137
H    5.137069   3.901283  -0.141616

