%chk=mol_4802.chk
# wB97XD/Def2SVP opt pop=full gfinput

C 4 H 7 N 1 O 2

1 2
C   -1.327759   3.710629   3.135566
C   -1.133703   1.131889   1.993510
N    0.502062   0.662651   0.247403
O    0.278924  -1.883868  -0.488400
C    1.976502  -2.425804  -2.378882
C    1.698202  -5.153567  -3.101702
O    3.516913  -0.994846  -3.346233
H   -1.021926   3.564288   5.173560
H   -3.229712   4.446204   2.804391
H    0.066027   4.994149   2.314178
H   -2.447195  -0.320951   2.709471
H    2.355941  -6.353486  -1.556926
H    2.838199  -5.534441  -4.782046
H   -0.274237  -5.564582  -3.554254

