%chk=mol_1129.chk
# wB97XD/Def2SVP opt pop=full gfinput

C 4 H 5 N 1 O 1

1 2
O    3.329962  -0.490856   2.759888
C    4.482449  -0.105069   0.376415
C    5.505490   2.517191   0.356667
C    7.949586   3.092461   0.000000
C    8.836492   5.597010   0.000000
N    9.562562   7.647344   0.000000
H    2.618669  -2.184372   2.745243
H    3.056197  -0.322784  -1.104507
H    5.958250  -1.528713   0.107563
H    4.130941   4.015498   0.673725
H    9.340576   1.617095  -0.294759

