%chk=mol_3976.chk
# wB97XD/Def2SVP opt pop=full gfinput

C 6 H 9 N 1

1 2
C    3.455232   0.081542  -0.840645
C    1.615224   1.762434   0.528122
C   -1.148481   2.038958  -0.099891
C   -2.609712   0.112968   1.673164
C   -0.893047  -1.766384   0.087116
C   -1.759486  -0.003080  -2.170691
N    1.716911  -1.031488   0.954047
H    3.229958  -0.357045  -2.824026
H    5.417164   0.156583  -0.251541
H    2.185960   2.882758   2.139642
H   -1.934891   3.926511  -0.337505
H   -2.225984   0.247271   3.701652
H   -4.656814  -0.038361   1.393673
H   -1.366196  -3.769323   0.067255
H   -3.745097  -0.169471  -2.745810
H   -0.618772   0.011546  -3.891078

