%chk=mol_5636.chk
# wB97XD/Def2SVP opt pop=full gfinput

C 4 H 10 N 2 O 1

1 2
N    5.124578  -1.739965  -1.557229
C    4.327775   0.247932   0.173269
C    6.264650   2.296055   0.177256
C    6.551227   4.223236  -1.906110
N    4.965218   4.167810  -4.175406
C    5.451973   4.990427   0.607358
O    7.080388   6.456174   2.208958
H    3.866172  -3.194676  -1.461760
H    6.807361  -2.461538  -0.958016
H    4.132793  -0.526327   2.082762
H    2.467302   0.946998  -0.402266
H    7.984339   1.690266   1.118189
H    8.480354   4.830915  -2.285114
H    3.147774   3.699536  -3.743737
H    5.561351   2.715064  -5.303063
H    3.445160   5.402387   0.686311
H    7.224348   8.176240   1.571591

