%chk=mol_5903.chk
# wB97XD/Def2SVP opt pop=full gfinput

C 4 H 10 N 2 O 1

1 2
N    1.727984   1.994511  -2.069723
N    4.265452   1.978770  -2.320999
C    5.435400   1.987141  -0.169187
C    8.271313   2.115397  -0.121850
C    9.180422   4.849774   0.080351
C    8.704098   6.400068  -2.310946
O    6.126379   7.115310  -2.525449
H    0.907806   2.411933  -3.773575
H    1.071059   0.221892  -1.651318
H    4.441669   2.053868   1.667967
H    9.038333   1.217362  -1.822395
H    8.916824   1.036383   1.522004
H   11.219625   4.818915   0.441535
H    8.262846   5.768427   1.694839
H    9.272962   5.382507  -4.020638
H    9.806752   8.148234  -2.221789
H    5.144590   5.592853  -2.918852

