%chk=mol_5886.chk
# wB97XD/Def2SVP opt pop=full gfinput

C 4 H 7 N 1 O 2

1 2
N    2.761268   4.478462  -0.594565
C    4.950629   3.313956  -1.202678
O    5.092547   1.642890  -2.782433
O    6.853753   4.281099   0.187914
C    9.302649   3.209757  -0.236046
C   11.097681   5.348719  -0.708647
C   13.150169   5.853918   0.683986
H    2.746509   5.830277   0.747765
H    1.157136   3.957087  -1.479996
H    9.363272   1.910589  -1.845733
H    9.825121   2.150641   1.464311
H   10.668941   6.543233  -2.325213
H   13.660565   4.715641   2.312307
H   14.367342   7.437924   0.214824

