%chk=mol_0162.chk
# wB97XD/Def2SVP opt pop=full gfinput

C 4 H 11 N 1

1 2
C    1.908245  -0.041876   0.034563
C    4.797580  -0.011716  -0.075362
C    5.707427  -1.510118  -2.377313
C    5.757448   2.731750  -0.105107
N    8.508832   2.865902  -0.012075
H    1.226376   0.956825   1.713396
H    1.196594  -1.982701   0.124098
H    1.083569   0.866855  -1.631778
H    5.507607  -0.953707   1.632251
H    5.090695  -0.620019  -4.140976
H    4.954408  -3.437431  -2.338687
H    7.770289  -1.652925  -2.416450
H    4.990124   3.759894   1.521230
H    5.097045   3.700745  -1.812266
H    9.143950   2.021213   1.597820
H    9.056191   4.708460   0.091047

