%chk=mol_0952.chk
# wB97XD/Def2SVP opt pop=full gfinput

C 4 H 7 N 1 O 1

1 2
C    1.865368   0.021429   0.013379
C    4.733915  -0.046128  -0.072528
C    5.861742  -2.357396   1.166377
O    6.252083  -1.648918   3.751276
N    6.618501   1.002991   3.809726
C    5.791821   1.864101   1.686883
H    1.064143  -1.499630  -1.137218
H    1.158138   1.824625  -0.717038
H    1.145628  -0.185514   1.944283
H    5.420925   0.228884  -2.000351
H    7.704187  -2.836744   0.351338
H    4.640034  -4.022471   1.075292
H    5.789403   3.882405   1.195327

