%chk=mol_6373.chk
# wB97XD/Def2SVP opt pop=full gfinput

C 4 H 4 N 2 O 1

1 2
O    1.716060   0.415041   0.714524
N    4.288771  -0.182585   0.560625
C    5.566755   1.884832   0.270325
C    8.361509   2.007570   0.033335
C    9.736322  -0.122757   0.114990
C    9.500258   4.418577  -0.276788
N   10.424108   6.391526  -0.529879
H    0.931881  -1.240908   0.927780
H    4.589616   3.731529   0.182302
H    8.857732  -1.962443   0.352453
H   11.781857  -0.087986  -0.053498

