%chk=mol_5182.chk
# wB97XD/Def2SVP opt pop=full gfinput

C 5 H 8 N 2

1 2
C    2.120254   0.297216   0.894237
C    4.749562  -0.287673   0.047772
C    6.384761   1.823850  -1.008301
N    6.886993   0.779758   1.495095
N    8.784071  -0.995092   1.347072
C    7.994902  -3.052437   0.287125
C    5.344939  -2.952281  -0.639483
H    1.880202   2.296660   1.370845
H    1.628660  -0.816891   2.566758
H    0.771783  -0.161553  -0.605582
H    5.652039   3.735081  -1.015369
H    7.736274   1.441842  -2.498955
H    9.163206  -4.748504   0.029839
H    5.274434  -3.299405  -2.673244
H    4.207740  -4.350868   0.369366

