%chk=mol_5380.chk
# wB97XD/Def2SVP opt pop=full gfinput

C 5 H 9 N 1 O 1

1 2
C    3.205297  -0.984982  -0.965934
O    5.752439  -0.130467  -0.946469
C    5.942698   2.400368   0.009581
C    8.745255   3.210645   0.083979
N    9.917131   3.013849  -2.425804
C    8.996457   5.816823   1.017410
C    9.209353   7.943218   1.780783
H    3.169638  -2.906607  -1.723638
H    2.044457   0.224877  -2.175963
H    2.439561  -1.018260   0.954595
H    5.138298   2.474030   1.919281
H    4.845938   3.670396  -1.210313
H    9.771434   1.918488   1.336188
H    8.991072   4.196402  -3.628407
H    9.517379   1.235541  -3.070710
H    9.422968   9.830223   2.451391

