%chk=mol_1035.chk
# wB97XD/Def2SVP opt pop=full gfinput

C 4 H 9 N 1 O 1

1 2
C    5.456736  -2.193764  -0.903421
N    4.430406   0.122681   0.174611
C    6.346475   2.126225   0.350223
C    6.733491   3.878304  -1.849796
C    5.501522   4.841686   0.511020
O    7.035413   6.459764   2.056343
H    3.965212  -3.621244  -1.026631
H    6.982255  -2.957799   0.267094
H    6.175795  -1.871150  -2.816523
H    3.728732  -0.260555   1.929486
H    8.009245   1.644610   1.461703
H    5.555889   3.628595  -3.505347
H    8.648786   4.471602  -2.260037
H    3.484693   5.210882   0.449868
H    6.838579   8.216208   1.552372

