%chk=mol_4800.chk
# wB97XD/Def2SVP opt pop=full gfinput

C 4 H 10 N 2 O 1

1 2
C    8.030996  -2.279879   1.315136
C    6.047123  -0.320687   0.617506
N    7.180770   2.138168   0.099985
O    7.949700   3.425695   2.292880
C    6.197244   5.444906   2.671582
C    8.731064   2.540926  -1.936365
N   10.461959   4.241188  -2.154439
H    7.127405  -4.088914   1.748885
H    9.121047  -1.688603   2.969894
H    9.358189  -2.587734  -0.242206
H    4.677129  -0.143109   2.161752
H    4.990559  -0.957203  -1.046493
H    6.817300   6.532745   4.314264
H    4.305099   4.700618   3.049300
H    6.157351   6.705032   1.029013
H    8.369313   1.232139  -3.518972
H   10.493857   5.191153  -0.463153

