%chk=mol_0884.chk
# wB97XD/Def2SVP opt pop=full gfinput

C 5 H 8 O 1

1 2
O    4.719988   3.159376   2.807906
C    4.143584   2.882928   0.579088
C    5.997821   2.601983  -1.573594
C    8.712034   2.527452  -0.766038
C   10.098942   0.049265  -0.544600
C   10.731546   1.843711  -2.654631
H    2.136694   2.863464   0.010450
H    5.705215   4.212049  -2.840504
H    5.482662   0.883636  -2.607709
H    9.164113   4.007126   0.582055
H    9.119043  -1.685466  -1.020811
H   11.447583  -0.152765   0.985889
H   12.514334   2.850293  -2.552907
H   10.173530   1.324282  -4.555884

