%chk=mol_2599.chk
# wB97XD/Def2SVP opt pop=full gfinput

C 6 H 10 O 1

1 2
C    1.608270   0.176708   0.521659
C    4.136459   0.315906   0.538440
C    5.745259   2.606764   0.095299
C    4.451704   5.180117   0.095752
C    6.592253   6.897349   0.865003
C    7.933939   5.298452   2.818886
O    7.627917   2.715688   2.058592
H    0.667432  -1.613807   0.874754
H    0.415437   1.802591   0.160835
H    5.195330  -1.411172   0.900814
H    6.773024   2.346189  -1.686732
H    2.956779   5.286017   1.528051
H    3.630561   5.667950  -1.737471
H    7.838717   7.237519  -0.754360
H    5.970968   8.723203   1.603962
H    9.945516   5.748112   2.967229
H    7.069258   5.514070   4.687107

