%chk=mol_2396.chk
# wB97XD/Def2SVP opt pop=full gfinput

C 6 H 12 O 1

1 2
C    1.842842   0.066405   0.336730
C    4.716775   0.023962   0.015571
C    5.630817  -2.508555  -1.063349
C    5.103395  -2.737760  -3.886335
O    6.163134  -0.655735  -5.229194
C    5.108516   1.702001  -4.459678
C    5.634691   2.195578  -1.669686
H    1.233500   1.857109   1.179019
H    1.229210  -1.458132   1.595741
H    0.842969  -0.157830  -1.459076
H    5.541943   0.265223   1.901253
H    4.785467  -4.098967  -0.041272
H    7.683286  -2.619652  -0.773918
H    5.975597  -4.465196  -4.618623
H    3.074887  -2.858097  -4.282743
H    5.985538   3.184699  -5.605892
H    3.080650   1.722655  -4.875456
H    7.687009   2.374573  -1.417238
H    4.791155   3.995051  -1.086233

