%chk=mol_1443.chk
# wB97XD/Def2SVP opt pop=full gfinput

C 7 H 12

1 2
C    1.826269   0.004252  -0.100250
C    4.739112  -0.001058  -0.004271
C    5.588034  -0.002627   2.760814
C    5.790631  -2.311003  -1.451877
C    6.297210  -1.266532  -4.029652
C    6.300744   1.259710  -4.029614
C    5.798984   2.305447  -1.451782
H    1.119965   0.007219  -2.046441
H    1.057226   1.676659   0.848204
H    1.051311  -1.667041   0.845331
H    7.652862  -0.007861   2.912389
H    4.881748  -1.675545   3.754924
H    4.890403   1.674354   3.754225
H    4.430879  -3.868307  -1.527862
H    7.557355  -3.020765  -0.637631
H    6.677688  -2.431605  -5.664114
H    6.686361   2.423196  -5.663963
H    7.568353   3.008690  -0.637405
H    4.444957   3.867759  -1.527447

