%chk=mol_3030.chk
# wB97XD/Def2SVP opt pop=full gfinput

C 6 H 12 O 1

1 2
C    2.955380   0.093466   0.848430
C    5.337040  -0.182661  -0.768325
C    4.693078  -1.577940  -3.230827
O    6.926073  -2.292918  -4.553597
C    6.439922   2.404185  -1.299281
C    8.078731   3.671171   0.660119
C    9.234827   2.740349  -1.757578
H    3.373671   1.076142   2.622656
H    2.162962  -1.759826   1.319728
H    1.499422   1.183724  -0.140161
H    6.725592  -1.307502   0.283686
H    3.532635  -0.417176  -4.493126
H    3.651971  -3.318888  -2.825160
H    7.807744  -0.741453  -4.996284
H    5.155570   3.603878  -2.357018
H    8.528618   2.655481   2.382623
H    7.883560   5.695653   0.915856
H    9.822343   4.138557  -3.135263
H   10.464075   1.102750  -1.649750

