%chk=mol_5207.chk
# wB97XD/Def2SVP opt pop=full gfinput

C 4 H 10 N 2 O 1

1 2
C    2.822760  -1.199957   0.362449
N    5.258597  -0.052572   0.703980
C    7.156450  -0.305852  -1.070568
O    7.019331  -1.719934  -2.902714
C    9.511370   1.289662  -0.420766
C   11.157585   1.739795  -2.738704
N    8.720274   3.730943   0.718172
H    1.778213  -1.073837   2.137885
H    3.045634  -3.178160  -0.190957
H    1.809488  -0.184173  -1.124066
H    5.461781   1.471662   1.861305
H   10.588532   0.228109   0.995432
H   10.117424   2.748720  -4.218398
H   11.796237  -0.056068  -3.546525
H   12.837477   2.848290  -2.257883
H    7.857633   4.778985  -0.654847
H   10.309514   4.720366   1.185217

