%chk=mol_6906.chk
# wB97XD/Def2SVP opt pop=full gfinput

C 6 H 11 N 1

1 2
C    1.602563   0.069901   0.032881
C    4.086835   0.220134   0.506673
C    5.721902   2.531496   0.383955
C    4.394577   5.079773   0.170245
C    6.393681   6.950450   1.041579
C    8.192984   5.403936   2.669257
N    7.154598   2.842148   2.732166
H    0.622589  -1.726511   0.183360
H    0.484299   1.703097  -0.498340
H    5.060082  -1.519907   1.014197
H    7.048924   2.304332  -1.196046
H    2.753010   5.202095   1.432639
H    3.753582   5.483437  -1.755026
H    7.402284   7.737351  -0.587327
H    5.543134   8.518602   2.088714
H   10.087074   5.398702   1.831277
H    8.343311   6.172035   4.583039
H    8.571609   1.546703   2.835288

