%chk=mol_4845.chk
# wB97XD/Def2SVP opt pop=full gfinput

C 5 H 7 N 1 O 1

1 2
C    1.982360  -0.302243   0.357007
C    4.778739   0.101006  -0.235762
O    5.352895  -1.182024  -2.543477
C    5.501257   2.870494  -0.378021
C    6.392509   4.015800  -2.468493
C    5.283958   4.318572   1.895244
N    5.084667   5.482625   3.741752
H    1.467429   0.465194   2.207200
H    1.529941  -2.322681   0.342551
H    0.780079   0.585059  -1.077560
H    5.920058  -0.811467   1.233046
H    4.042256  -0.760860  -3.760649
H    6.662777   3.000488  -4.230076
H    6.920120   6.001921  -2.468889

