%chk=mol_7100.chk
# wB97XD/Def2SVP opt pop=full gfinput

C 6 H 13 N 1

1 2
C    1.353195   0.992654   0.862263
C    4.145946   1.199069   1.218665
C    5.693461   2.423064  -0.375659
C    8.507037   2.637283  -0.003685
C    9.430527   5.394714   0.220739
C    8.306499   6.756111   2.510369
N   12.200506   5.436742   0.396483
H    0.810636  -0.994034   0.678903
H    0.702147   2.001390  -0.821766
H    0.376849   1.785016   2.504284
H    4.915178   0.287503   2.892944
H    4.926440   3.320117  -2.059764
H    9.424215   1.738454  -1.633385
H    9.098238   1.560026   1.668345
H    8.892616   6.429188  -1.492733
H    8.737356   5.758468   4.272879
H    6.249608   6.914243   2.350876
H    9.052809   8.681628   2.667443
H   12.758675   4.534568   2.005510
H   12.804198   7.257550   0.576952

