%chk=mol_4295.chk
# wB97XD/Def2SVP opt pop=full gfinput

C 5 H 9 N 1 O 1

1 2
C    5.156552  -0.946980   2.628609
C    4.708385   0.189917   0.035791
C    5.704289   2.837461  -0.078348
N    7.899906   3.393306  -0.996925
O    8.201506   6.039281  -0.704717
C    5.749341   7.084848  -0.246855
C    4.291606   4.996814   1.017429
H    4.464062  -2.894305   2.691140
H    4.178090   0.133226   4.097153
H    7.172342  -0.958942   3.095806
H    2.685905   0.216959  -0.398335
H    5.654949  -0.950098  -1.409339
H    4.916330   7.620094  -2.065017
H    5.911214   8.767895   0.941764
H    2.288062   4.990918   0.532941
H    4.543204   4.996474   3.068348

