%chk=mol_1680.chk
# wB97XD/Def2SVP opt pop=full gfinput

C 5 H 12 N 2

1 2
C    4.240262  -0.893727  -2.608843
N    4.334540   0.217621  -0.088968
C    6.063016   2.379770  -0.091330
C    4.645514   4.796465  -0.939005
C    6.005380   6.169767   1.265587
C    6.090398   3.573869   2.602701
N    8.563672   3.213989   3.777657
H    2.908515  -2.476184  -2.611677
H    6.090795  -1.618891  -3.185171
H    3.582297   0.470674  -4.018238
H    4.833712  -1.149993   1.173633
H    7.913020   2.087184  -0.979672
H    2.583407   4.761694  -0.726430
H    5.108988   5.490146  -2.829374
H    7.834049   6.976132   0.712748
H    4.894391   7.631111   2.214684
H    4.464667   3.191823   3.826204
H   10.066080   3.617805   2.642498
H    8.846488   1.420545   4.416479

