%chk=mol_0610.chk
# wB97XD/Def2SVP opt pop=full gfinput

C 5 H 10 O 1

1 2
C    1.948100   0.012491  -0.097982
C    4.764642  -0.021448  -0.022847
C    6.327597  -1.415273  -1.969548
C    5.159595  -2.853638  -4.091918
C    6.262893   1.430920  -1.963444
O    8.496945   2.670240  -1.059362
H    1.222804   1.385850   1.269102
H    1.197803  -1.847944   0.405611
H    1.208801   0.531561  -1.958985
H    5.444660  -0.057693   1.909701
H    8.032564  -2.343714  -1.312169
H    3.531671  -1.881714  -4.916954
H    4.538291  -4.712845  -3.431308
H    6.549658  -3.140952  -5.596613
H    5.235184   2.370302  -3.470936
H    9.314271   1.736753   0.294835

