%chk=mol_1636.chk
# wB97XD/Def2SVP opt pop=full gfinput

C 6 H 11 N 1

1 2
C    1.919300  -0.299843   0.569091
N    4.558038   0.272820   0.008428
C    5.538107   2.211584   1.786415
C    7.978272   0.639049   1.962140
C    6.265047  -1.613751   1.214792
C    7.329227  -3.363146  -0.689826
C    9.044796  -5.097064  -0.017669
H    1.312188  -1.956963  -0.511719
H    0.719853   1.283578  -0.011905
H    1.552939  -0.675313   2.573561
H    4.532470   2.382397   3.592502
H    5.763797   4.096681   0.968730
H    9.417696   1.169835   0.567787
H    8.850041   0.537363   3.832157
H    5.463690  -2.603173   2.857134
H    6.700969  -3.225706  -2.639532
H    9.712645  -5.275568   1.913574
H    9.828862  -6.379715  -1.413931

