%chk=mol_4346.chk
# wB97XD/Def2SVP opt pop=full gfinput

C 5 H 11 N 1 O 1

1 2
C    2.947708  -0.927478  -1.200127
C    5.504678  -0.930199   0.106240
C    6.932290   1.529280  -0.359388
C    9.464240   1.471605   0.977423
C    9.545763   2.235584   3.725425
N   11.418217   0.676787  -0.283138
O   13.591591   0.664919   1.220876
H    1.972553  -2.722131  -0.871183
H    3.157279  -0.676881  -3.243602
H    1.748488   0.596227  -0.478139
H    6.622961  -2.532913  -0.582168
H    5.236204  -1.225166   2.138773
H    5.846283   3.154973   0.323351
H    7.251767   1.803347  -2.388576
H    7.710574   2.960974   4.335202
H   10.959806   3.717261   3.997829
H   10.028606   0.593809   4.882466
H   14.869971   0.022771   0.059073

