%chk=mol_4475.chk
# wB97XD/Def2SVP opt pop=full gfinput

C 5 H 9 N 1 O 1

1 2
C    4.370086   0.037417   2.837499
C    5.470682   0.525892   0.224972
C    5.908210   3.327260  -0.255737
N    3.797594   4.707251  -0.933714
C    8.273485   4.234460  -0.044938
C    9.004601   6.869192  -0.586174
O   11.164332   7.615955  -0.208909
H    4.082054  -1.992055   3.120732
H    2.542456   0.978141   3.080594
H    5.644971   0.713220   4.322862
H    4.193435  -0.230698  -1.221500
H    7.240202  -0.535756   0.033788
H    2.127983   3.870745  -0.463984
H    3.823200   6.561129  -0.433276
H    9.838614   3.031102   0.511946
H    7.525116   8.118623  -1.342764

