%chk=mol_0577.chk
# wB97XD/Def2SVP opt pop=full gfinput

C 4 H 6 N 2

1 2
N    1.794862   0.046053  -0.443500
N    4.438286   0.001115  -0.252505
C    5.945041   2.087278  -0.133207
C    8.412003   1.275244   0.091992
C    8.367311  -1.401874   0.092521
C    5.874441  -2.132310  -0.132356
H    1.057359   1.581663   0.447752
H    1.006922  -1.475933   0.427003
H    5.162165   3.970976  -0.228978
H   10.059277   2.477790   0.224972
H    9.975260  -2.660602   0.226087
H    5.030149  -3.989344  -0.227221

