%chk=mol_5851.chk
# wB97XD/Def2SVP opt pop=full gfinput

C 4 H 7 N 1 O 2

1 2
N    3.032349   0.982053  -2.200870
C    5.542359   0.542521  -1.788966
O    7.095374   0.873413  -3.472750
C    6.169427  -0.357952   0.853722
C    8.922115  -0.879932   1.209274
C   10.663857   1.026613   2.403203
O    9.683561  -1.080035   3.803471
H    1.687771   0.716471  -0.872279
H    2.506835   1.575673  -3.941496
H    5.106645  -2.098711   1.209141
H    5.512142   1.076464   2.196202
H    9.687284  -2.233411  -0.120602
H    9.943947   2.887407   2.856019
H   12.644384   0.980258   1.886986

