%chk=mol_0799.chk
# wB97XD/Def2SVP opt pop=full gfinput

C 4 H 8 O 2

1 2
C    2.104229  -0.686670   1.071040
C    4.129505  -0.245570  -0.925002
O    3.659115  -1.891654  -3.008501
C    4.077481   2.470968  -1.870734
C    6.324611   2.932383  -3.547451
O    7.906255   4.576350  -3.122016
H    2.383020   0.539630   2.712834
H    2.132745  -2.655594   1.710448
H    0.214371  -0.342796   0.296668
H    5.993644  -0.714657  -0.154769
H    3.653559  -3.617125  -2.366712
H    4.152824   3.809367  -0.293191
H    2.380034   2.852183  -2.992514
H    6.455172   1.736205  -5.251095

