%chk=mol_1112.chk
# wB97XD/Def2SVP opt pop=full gfinput

C 4 H 3 N 1 O 1

1 2
O    1.744179  -0.094600   0.009449
C    4.021413   0.050796   0.002702
C    5.628417   2.284036  -0.003420
C    7.945334   1.266041  -0.009524
N    8.134686  -1.336112  -0.008409
C    5.828312  -2.126112  -0.001172
H    5.028543   4.218077  -0.002891
H    9.671014   2.374252  -0.015269
H    5.101032  -4.068240   0.002192

