%chk=mol_4281.chk
# wB97XD/Def2SVP opt pop=full gfinput

C 4 H 6 N 2 O 1

1 2
C    1.826571  -0.197287  -0.000472
C    4.677469   0.140879   0.018803
C    5.385360   2.845455  -0.003005
N    5.850441   4.378382   1.896643
C    6.381586   6.587661   0.673536
N    6.268297   6.491361  -1.846603
O    5.599202   3.978743  -2.312590
H    1.341554  -2.208069   0.027760
H    0.983678   0.643508  -1.694102
H    0.955956   0.697460   1.650846
H    5.502958  -0.817080  -1.621914
H    5.467034  -0.760823   1.706555
H    6.865564   8.320200   1.640112

