%chk=mol_2770.chk
# wB97XD/Def2SVP opt pop=full gfinput

C 6 H 10 O 1

1 2
C    0.972018   3.020803   0.746990
C    3.714653   2.645617   1.303325
C    5.569949   3.030516  -0.383123
C    8.325056   2.622316   0.179297
C    9.824535   5.063408  -0.123645
C   12.594741   4.700883   0.436697
O   13.570124   2.683468   1.032471
H   -0.045391   1.236202   0.985624
H    0.649159   3.696134  -1.181400
H    0.171398   4.406274   2.057024
H    4.174008   2.009497   3.203747
H    5.099596   3.640085  -2.290046
H    9.054547   1.178358  -1.116998
H    8.581757   1.873078   2.095763
H    9.115416   6.522541   1.162805
H    9.671353   5.783658  -2.059461
H   13.758000   6.423236   0.267056

