%chk=mol_1715.chk
# wB97XD/Def2SVP opt pop=full gfinput

C 5 H 12 N 2

1 2
C    4.136044  -0.709176  -2.542456
N    4.429707   0.198308   0.057561
C    5.550995  -1.803668   1.609140
C    6.120029   2.421231   0.066443
C    4.745461   4.794292  -0.960019
N    5.859738   6.261456   1.168928
C    5.964883   3.852830   2.619066
H    3.229089   0.721856  -3.732304
H    2.904849  -2.374535  -2.592742
H    5.949652  -1.215340  -3.409123
H    4.337167  -3.482274   1.610708
H    5.721788  -1.206382   3.583866
H    7.430101  -2.360419   0.937059
H    8.041370   2.142080  -0.661177
H    2.672526   4.756063  -0.907031
H    5.341935   5.426424  -2.837424
H    7.603653   6.973656   0.761314
H    7.620245   3.664973   3.845763
H    4.262750   3.526853   3.756738

