%chk=mol_1598.chk
# wB97XD/Def2SVP opt pop=full gfinput

C 7 H 6

1 2
C    1.923401  -0.016856  -0.172078
C    4.190657   0.011168  -0.082071
C    6.898578   0.051401   0.033996
C    8.371373  -1.337227  -1.963860
C    8.333768   1.506830  -1.962632
C   10.581748   2.837424  -1.237336
C   12.457585   3.960223  -0.631943
H   -0.087778  -0.037908  -0.249047
H    7.686594   0.026626   1.930412
H    7.348824  -2.300231  -3.455497
H   10.082463  -2.303519  -1.383469
H    7.234136   2.404790  -3.446199
H   14.119864   4.960437  -0.094033

