%chk=mol_6733.chk
# wB97XD/Def2SVP opt pop=full gfinput

C 5 H 6 N 2

1 2
C    1.857771  -0.046809   0.040440
C    4.680965  -0.022280  -0.020258
C    6.053246   2.216611  -0.137100
C    8.661862   2.069779  -0.183568
N    9.919796  -0.144526  -0.119582
N    8.593303  -2.340048  -0.003893
C    6.043363  -2.260566   0.043936
H    1.082171   1.869128  -0.050871
H    1.187655  -0.919635   1.792065
H    1.116035  -1.106907  -1.573651
H    5.127243   4.043164  -0.191448
H    9.837064   3.744417  -0.274672
H    5.126336  -4.090804   0.137402

