%chk=mol_2351.chk
# wB97XD/Def2SVP opt pop=full gfinput

C 6 H 8 O 1

1 2
C    1.912459   0.051854   0.125553
C    4.720914   0.004176  -0.024661
C    6.190629  -2.053093  -0.133301
C    8.946492  -1.462761  -0.274615
C    8.843295   1.391216  -0.240222
O   10.732435   2.736248  -0.338771
C    6.186302   2.425653  -0.069655
H    1.116205  -1.857752   0.117503
H    1.122837   1.077068  -1.487914
H    1.300528   0.990368   1.864045
H    5.489428  -3.975568  -0.122776
H    9.959367  -2.169519   1.378102
H    9.776838  -2.135183  -2.039562
H    5.751608   3.554802  -1.741893
H    5.949236   3.498242   1.677850

