%chk=mol_6800.chk
# wB97XD/Def2SVP opt pop=full gfinput

C 5 H 8 N 2

1 2
C    1.856391   0.090877  -0.018822
N    4.578750  -0.017461  -0.003364
C    6.144085   2.035443   0.016932
N    8.531735   1.361472   0.027684
C    8.505903  -1.226017   0.013474
C    6.064585  -2.146653  -0.006236
C    5.126600  -4.783974  -0.027401
H    1.239301   2.062126  -0.007653
H    1.152279  -0.867498   1.669630
H    1.172802  -0.842421  -1.729534
H    5.458323   3.962189   0.023017
H   10.247342  -2.299230   0.017877
H    3.063303  -4.896942  -0.015307
H    5.824249  -5.802404   1.633082
H    5.803614  -5.767784  -1.717043

