%chk=mol_4763.chk
# wB97XD/Def2SVP opt pop=full gfinput

C 4 H 6 N 2 O 1

1 2
C    3.671171  -2.083952   0.680906
C    2.949900   0.337052   0.511927
N    4.476440   2.332262  -0.233173
C    3.545712   4.814984  -0.233816
O    4.682817   6.795512  -0.634003
N    6.980762   1.743877  -0.679734
C    8.324848   3.226027  -2.071121
H    2.350441  -3.530915   1.280667
H    5.582572  -2.679613   0.236669
H    1.009492   0.818062   0.982582
H    1.511422   4.868747   0.221533
H   10.335101   2.768392  -2.359644
H    7.631640   4.899323  -3.092934

