%chk=mol_1118.chk
# wB97XD/Def2SVP opt pop=full gfinput

C 4 H 9 N 1 O 1

1 2
O    4.288280  -0.749806  -2.617611
C    4.502877   0.059507  -0.063684
C    5.935913   2.531704  -0.005159
C    4.519318   4.902819  -0.928555
N    5.682293   6.331565   1.187466
C    6.010614   3.912035   2.558538
H    3.369268  -2.342240  -2.604477
H    5.519493  -1.396904   0.996906
H    2.600981   0.250483   0.728773
H    7.826679   2.352615  -0.850793
H    2.454244   4.805725  -0.803323
H    5.037405   5.576771  -2.812706
H    7.358140   7.152216   0.693870
H    7.782554   3.748423   3.610303
H    4.439571   3.485260   3.839035

