%chk=mol_1758.chk
# wB97XD/Def2SVP opt pop=full gfinput

C 6 H 11 N 1

1 2
C    2.536882  -0.446391   0.615011
N    5.250736  -0.010412   0.780703
C    5.923517   2.461501  -0.286785
C    8.774792   2.936729  -0.072717
C    9.470457   5.403048  -1.157155
C   10.050565   7.413660  -2.033459
C   10.765487   9.866298  -3.093387
H    2.086579  -2.295110   1.425383
H    1.884832  -0.436205  -1.348452
H    1.483643   0.975439   1.687034
H    6.173622  -1.398624  -0.187083
H    4.904860   3.961509   0.719929
H    5.353292   2.549864  -2.279293
H    9.815351   1.439404  -1.058303
H    9.352425   2.870399   1.916333
H    9.284527  10.587437  -4.342799
H   12.511725   9.711907  -4.189768
H   11.071017  11.254547  -1.591962

