%chk=mol_1859.chk
# wB97XD/Def2SVP opt pop=full gfinput

C 5 H 10 N 2

1 2
C    4.288110  -2.239760  -0.278262
N    6.607749  -0.994865   0.535227
N    6.820532   1.467467  -0.136495
C    8.989994   2.447101   0.429025
C    9.564679   5.118323  -0.145093
C   11.822089   6.093516   0.451871
C   12.547195   8.771542  -0.071507
H    4.325281  -4.228489   0.286407
H    4.099723  -2.167100  -2.337534
H    2.628722  -1.348830   0.577803
H    6.786328  -1.216379   2.446817
H   10.508975   1.347394   1.352137
H    8.082340   6.198850  -1.058152
H   13.254747   4.933376   1.362209
H   11.024738   9.829449  -0.990613
H   14.205487   8.824095  -1.306160
H   13.022632   9.731372   1.697617

