%chk=mol_5428.chk
# wB97XD/Def2SVP opt pop=full gfinput

C 5 H 7 N 1 O 1

1 2
C    5.432811  -1.765439   1.478786
O    5.341916  -0.360333  -0.813489
N    6.388465   2.016640  -0.379665
C    5.045947   4.107131   0.305153
C    6.724685   6.094423   0.471317
C    9.146860   5.151715  -0.196532
C    8.867427   2.619009  -0.748898
H    4.603278  -3.624419   1.123026
H    4.327095  -0.836827   2.961144
H    7.386883  -2.037956   2.103095
H    3.030365   4.003914   0.613443
H    6.255523   8.018600   0.986154
H   10.893723   6.211719  -0.292492
H   10.205938   1.206798  -1.366915

