%chk=mol_3371.chk
# wB97XD/Def2SVP opt pop=full gfinput

C 6 H 10 O 1

1 2
C    3.921616  -1.029882  -0.655168
O    6.352730   0.110379  -0.580184
C    6.486901   2.647828  -0.039495
C    4.520905   4.216111   0.325978
C    9.080304   3.560131   0.091746
C   10.675498   3.128309  -2.219427
C   10.004758   4.697935   2.165078
H    4.173536  -3.038453  -1.075405
H    2.762855  -0.207719  -2.158804
H    2.974089  -0.878269   1.178188
H    2.572862   3.604804   0.230811
H    4.824735   6.208034   0.714638
H   10.894857   1.107342  -2.605592
H   12.572971   3.928079  -2.004168
H    9.810816   4.024399  -3.873258
H    8.858375   4.971718   3.844497
H   11.945544   5.354558   2.247357

