%chk=mol_6428.chk
# wB97XD/Def2SVP opt pop=full gfinput

C 4 H 6 N 2 S 1

1 2
C    1.918828   0.036831   0.033127
C    4.744025  -0.009297   0.136684
C    6.180595   2.081987   0.031710
C    8.862287   1.360433   0.031899
N   10.802714   2.810268  -0.027571
S    9.084443  -1.949064   0.075041
N    5.958231  -2.315160   0.355930
H    1.183838   1.969397  -0.054519
H    1.121364  -0.868480   1.714114
H    1.243931  -0.976970  -1.639243
H    5.545798   4.006276  -0.117182
H   10.252766   4.662673  -0.051004
H    5.076353  -3.813354  -0.467216

