%chk=mol_4340.chk
# wB97XD/Def2SVP opt pop=full gfinput

C 5 H 9 N 1 O 1

1 2
C    2.450011  -0.013852   2.720828
C    3.136133   0.771840   0.047772
C    4.911909   3.038869   0.069258
C    3.822727   5.658312   0.046997
C    1.361850   6.222906   0.208248
N    7.314733   2.516170   0.123569
O    8.826740   4.685028   0.158567
H    1.197765  -1.659369   2.687871
H    1.486477   1.511252   3.732833
H    4.141807  -0.511511   3.804094
H    1.438800   1.181986  -1.057831
H    4.088687  -0.800904  -0.908713
H    5.184331   7.184342  -0.102404
H   -0.113610   4.816232   0.386203
H    0.761975   8.186142   0.181414
H   10.526644   3.973830   0.207133

