%chk=mol_1137.chk
# wB97XD/Def2SVP opt pop=full gfinput

C 6 H 12

1 2
C    3.768189  -0.589821   2.756808
C    4.741833   0.158472   0.154806
C    5.723225   2.849745   0.075060
C    3.732228   4.871336   0.274067
C    8.215735   3.295834  -0.221665
C    9.539129   5.791066  -0.311540
H    3.166520  -2.569177   2.746963
H    2.141721   0.558357   3.317811
H    5.240078  -0.376018   4.195438
H    3.229561  -0.061756  -1.245500
H    6.228122  -1.177734  -0.397258
H    2.145671   4.437757  -0.983092
H    4.413833   6.742788  -0.268341
H    3.016003   4.989312   2.210602
H    9.484233   1.682952  -0.392118
H    8.332596   7.388300   0.186970
H   10.302692   6.112565  -2.206104
H   11.119961   5.778348   1.023627

