%chk=mol_3242.chk
# wB97XD/Def2SVP opt pop=full gfinput

C 7 H 12

1 2
C    1.745087   0.050361   0.053838
C    4.508698   0.064005   0.121736
C    6.778164   0.078197   0.178768
C    9.558669   0.088458   0.248329
C   10.652027   2.778313   0.118372
C   10.077740   4.292381   2.517115
C   13.511485   2.664854  -0.299918
H    0.999930   1.978335   0.047980
H    0.974362  -0.930350   1.702492
H    1.056319  -0.908996  -1.642947
H   10.255468  -1.020433  -1.358808
H   10.219375  -0.870238   1.962859
H    9.811401   3.779773  -1.492808
H   10.852565   3.361142   4.195570
H    8.040728   4.521831   2.793677
H   10.904211   6.186680   2.401275
H   14.460544   1.684389   1.256649
H   14.310802   4.568772  -0.440363
H   13.958858   1.664603  -2.055587

