%chk=mol_1369.chk
# wB97XD/Def2SVP opt pop=full gfinput

C 5 H 6 N 2

1 2
C    3.675083  -1.270293  -2.289025
C    4.149479   0.167203  -0.247138
C    2.744771  -0.265941   2.024804
N    1.629851  -0.684270   3.869025
C    6.117195   2.122503  -0.074342
C    6.564757   3.935903  -2.237568
N    5.300852   4.763357   0.055501
H    4.733877  -1.034020  -4.028310
H    2.211981  -2.711549  -2.275003
H    7.735670   1.621385   1.085478
H    5.385474   3.845971  -3.907859
H    8.462080   4.637690  -2.548806
H    6.485332   5.789970   1.183271

