%chk=mol_3117.chk
# wB97XD/Def2SVP opt pop=full gfinput

C 5 H 10 O 2

1 2
C    2.249284  -0.662897   0.578559
C    4.807274   0.017423  -0.585532
C    5.222409  -1.528221  -3.011467
O    7.767152  -1.354008  -3.841208
C    4.921055   2.875804  -1.066883
C    7.526118   3.708720  -1.836719
O    8.115485   4.035208  -4.059869
H    1.946002   0.370556   2.344111
H    2.151151  -2.683619   1.008018
H    0.695986  -0.204638  -0.709346
H    6.304882  -0.475606   0.764375
H    3.965174  -0.920278  -4.539632
H    4.847374  -3.530386  -2.648357
H    7.946827   0.201653  -4.827872
H    4.428460   3.931462   0.645001
H    3.578537   3.435295  -2.541455
H    8.934020   3.862695  -0.309499

