%chk=mol_0467.chk
# wB97XD/Def2SVP opt pop=full gfinput

C 4 H 8 N 2

1 2
C    2.129344   0.013852  -0.318759
N    4.853421   0.005783  -0.461036
C    6.225722  -2.258374   0.238332
C    8.823963  -1.175618   0.959017
N    8.549140   1.627999   1.096306
C    6.278313   2.022706   0.257324
H    1.351589  -1.778875  -0.996679
H    1.348792   1.529148  -1.489992
H    1.499441   0.301090   1.632024
H    6.363350  -3.587494  -1.340326
H    5.354936  -3.209757   1.856637
H   10.252785  -1.652698  -0.460696
H    9.447496  -1.913367   2.789349
H    5.389726   3.900621   0.123437

