%chk=mol_2548.chk
# wB97XD/Def2SVP opt pop=full gfinput

C 5 H 10 O 2

1 2
C    1.885077   0.093900   0.258326
C    4.705815  -0.208796  -0.101006
O    6.102152   1.774132   1.194156
C    7.872202  -0.084074   2.185241
C   10.388883   0.112665   0.821502
C    6.045820  -2.255502   1.483341
O    7.040364  -4.440346   0.176293
H    0.871183  -1.476632  -0.626860
H    1.222010   1.847944  -0.615843
H    1.368464   0.145188   2.262475
H    5.212847  -0.232606  -2.111826
H    8.100254   0.139386   4.230719
H   10.155766   0.085397  -1.234294
H   11.632927  -1.457565   1.347129
H   11.349147   1.877575   1.323564
H    4.934680  -2.882550   3.116725
H    7.901947  -3.784271  -1.310809

