%chk=mol_2443.chk
# wB97XD/Def2SVP opt pop=full gfinput

C 7 H 12

1 2
C    1.352798  -1.119587  -0.118580
C    3.971902  -0.057863  -0.153691
C    4.662899   2.394623  -0.231756
C    2.839578   4.581698  -0.183606
C    7.436299   3.124700  -0.270458
C    8.162728   4.462551  -2.669068
C    9.116323   6.806718  -2.758471
H    1.237185  -2.708998  -1.438611
H   -0.092578   0.240940  -0.683249
H    0.902269  -1.823642   1.772582
H    5.448704  -1.492940  -0.129900
H    0.909828   4.020732   0.286067
H    2.795358   5.528072  -2.022593
H    3.417721   5.960385   1.247824
H    8.641113   1.446264  -0.094184
H    7.844347   4.297294   1.390385
H    7.894463   3.423995  -4.422129
H    9.422231   7.911357  -1.058341
H    9.608634   7.671098  -4.553257

