%chk=mol_2692.chk
# wB97XD/Def2SVP opt pop=full gfinput

C 6 H 10 O 1

1 2
C    4.469486   6.456004  -0.823656
C    5.318993   4.119263  -1.285770
C    6.115966   2.284565   0.732628
C    8.894185   1.619155   0.376660
C   10.870422   3.600439   1.157835
C   11.958224   1.490692   2.790861
O    9.756051  -0.076458   2.366693
H    3.895746   7.687312  -2.361742
H    4.318534   7.192014   1.087613
H    5.412610   3.459994  -3.232490
H    4.955769   0.576480   0.565633
H    5.784641   3.061092   2.626020
H    9.277573   0.755494  -1.471341
H   10.145089   5.211260   2.231030
H   12.102940   4.263185  -0.360352
H   13.669202   0.589708   2.059613
H   12.200261   1.954015   4.789454

