%chk=mol_6460.chk
# wB97XD/Def2SVP opt pop=full gfinput

C 4 H 6 N 2 S 1

1 2
C    1.850439  -0.024321  -0.016611
C    4.656607   0.195058  -0.001701
C    5.981739   2.364161   0.007068
S    9.248943   1.794730   0.024812
C    8.713074  -1.513387   0.020863
N   10.545050  -3.093274   0.031729
N    6.169011  -1.937631   0.005650
H    0.939591   1.834187  -0.011830
H    1.198294  -1.056678   1.653284
H    1.215018  -1.040238  -1.703097
H    5.208236   4.255210   0.003855
H    9.841013  -4.887833   0.027288
H    5.401196  -3.678654   0.002098

