%chk=mol_4565.chk
# wB97XD/Def2SVP opt pop=full gfinput

C 5 H 9 N 1 O 1

1 2
C    1.810698  -0.036869   0.012094
C    4.709802  -0.085151   0.046355
C    5.613469  -1.537217   2.381641
O    5.524350  -1.459360  -2.135806
C    5.725832   2.641478  -0.041234
C    8.495888   2.793469   0.108565
N   10.675611   2.991059   0.250540
H    1.107569   0.931937  -1.678247
H    1.044244   0.920051   1.678833
H    1.041088  -1.958569  -0.055180
H    5.105114  -0.556865   4.131300
H    7.663425  -1.823945   2.352388
H    4.779363  -3.433179   2.432361
H    4.739320  -0.740414  -3.634888
H    4.912003   3.747214   1.511743
H    5.129889   3.543350  -1.810830

