%chk=mol_5258.chk
# wB97XD/Def2SVP opt pop=full gfinput

C 5 H 7 N 1 O 1

1 2
C    2.032873  -0.112250  -0.294930
N    4.446696  -0.227542   0.016686
O    5.418204   2.238948   0.030255
C    8.093602   2.101961   0.387696
C    9.154438   4.777266   0.388584
C   11.909885   4.792667   0.735633
C   14.161381   4.810524   1.017429
H    0.910281  -1.862249  -0.359879
H    0.999287   1.685711  -0.505407
H    8.932508   0.986021  -1.144796
H    8.494791   1.158723   2.189588
H    8.241738   5.882566   1.885285
H    8.655663   5.719615  -1.388495
H   16.160183   4.826625   1.266702

