%chk=mol_6565.chk
# wB97XD/Def2SVP opt pop=full gfinput

C 3 H 9 N 1 O 2 S 1

1 2
C    2.546406  -0.465629   1.940182
C    5.357827  -0.678790   1.407827
N    6.236739   1.680968   0.238767
S    9.366957   2.023878  -0.202730
C   10.348575   3.268603   2.763384
O   10.458066  -0.457314  -0.544487
O    9.635506   3.984185  -2.084179
H    1.848700  -2.193216   2.837972
H    1.481356  -0.173023   0.189218
H    2.144291   1.128904   3.196906
H    5.688397  -2.263741   0.121207
H    6.367867  -1.018203   3.180069
H    5.279006   2.254613  -1.337435
H    9.321962   5.019491   3.128725
H   12.373019   3.654088   2.646883
H    9.988091   1.870867   4.235349

