%chk=mol_5618.chk
# wB97XD/Def2SVP opt pop=full gfinput

C 5 H 9 N 1 O 1

1 2
N    5.840954  -1.998272  -1.006374
C    4.575859   0.182755   0.134643
C    6.135581   2.622789  -0.016554
C    6.620296   3.522676  -2.730597
C    6.198207   6.277122  -2.464902
C    5.184842   6.712496  -0.211555
O    4.814229   4.630113   1.306349
H    4.693475  -3.539344  -0.844462
H    7.428060  -2.418037   0.004214
H    4.147382  -0.236310   2.118289
H    2.744128   0.469956  -0.790813
H    7.943445   2.348665   0.968409
H    5.287699   2.723190  -4.096813
H    8.544756   3.073016  -3.336595
H    6.559353   7.676049  -3.902870
H    4.544130   8.477255   0.574817

