%chk=mol_6955.chk
# wB97XD/Def2SVP opt pop=full gfinput

C 5 H 10 N 2

1 2
C    5.939825  -2.150546  -1.000251
C    4.660801   0.133169   0.188519
C    6.317279   2.487201   0.104181
C    6.816412   3.525227  -2.578286
N    6.594577   6.336289  -2.395757
C    5.556173   6.678632  -0.202805
N    5.036706   4.625407   1.249865
H    4.724315  -3.815376  -0.831291
H    7.732193  -2.568043  -0.056805
H    6.317921  -1.842143  -3.009087
H    4.196458  -0.308857   2.160845
H    2.854375   0.483033  -0.768552
H    8.115013   2.163718   1.082511
H    5.431092   2.844038  -3.959581
H    8.709067   3.004910  -3.232717
H    5.104396   8.536951   0.619396
H    5.166738   4.828685   3.148454

