%chk=mol_2640.chk
# wB97XD/Def2SVP opt pop=full gfinput

C 6 H 6 O 1

1 2
C    1.889726   0.000000   0.000000
C    4.138803   0.000000   0.000000
C    6.867567   0.000000   0.000000
C    8.000628  -2.331884   1.306198
O    8.914557  -1.593908   3.783251
C    8.909832   1.005561   3.686100
C    7.838773   2.038977   1.666172
H   -0.124325   0.004857   0.012075
H    7.602085   0.171001  -1.926557
H    9.635071  -3.037300   0.244720
H    6.661398  -3.893667   1.529620
H    9.724776   1.928144   5.307523
H    7.637479   4.039403   1.321221

