%chk=mol_0844.chk
# wB97XD/Def2SVP opt pop=full gfinput

C 4 H 4 O 2

1 2
C    2.789047  -0.758026   1.752381
O    5.358016  -0.455122   0.992730
C    6.104231   1.995230   0.841287
O    4.810241   3.855211   1.282878
C    8.707367   2.230368   0.069466
C   10.876489   2.430282  -0.573532
H    2.374176  -2.781431   1.816953
H    1.516959   0.125988   0.381536
H    2.492360   0.030047   3.641767
H   12.798322   2.614266  -1.143039

