%chk=mol_6194.chk
# wB97XD/Def2SVP opt pop=full gfinput

C 5 H 9 N 1 O 1

1 2
O    4.743080  -1.095758   2.513638
C    4.384958  -0.061548   0.059073
C    5.383111   2.608578   0.018349
C    3.833480   4.550706  -0.528235
C    8.078655   2.894512   0.658475
C   10.044631   2.229461  -1.295464
N    9.558802   4.850757  -0.627219
H    3.921106  -2.736512   2.514583
H    2.365144  -0.138838  -0.388641
H    5.399099  -1.234804  -1.310582
H    1.850760   4.276167  -0.967030
H    4.540747   6.477755  -0.547794
H    8.535156   2.565133   2.630782
H    9.444643   1.669857  -3.171036
H   11.817818   1.427688  -0.662444
H   10.908936   5.534743   0.567900

