%chk=mol_1589.chk
# wB97XD/Def2SVP opt pop=full gfinput

C 5 H 10 N 2

1 2
C    8.051103  -3.725293   2.155365
C    6.032705  -1.879087   1.344446
N    3.673892  -2.295526   1.865046
N    6.636491   0.268303   0.034676
C    9.088015   1.480733   0.370254
C   11.375263   0.654374  -1.093131
C   10.141593   3.137607  -1.683519
H    9.120442  -4.343630   0.498453
H    7.219548  -5.386835   3.059108
H    9.333225  -2.815862   3.495899
H    3.475547  -3.960337   2.835251
H    5.093832   1.398341  -0.157830
H    9.379693   2.137734   2.296074
H   11.164011  -0.861942  -2.453035
H   13.182465   0.679791  -0.131053
H   11.114840   4.851211  -1.128544
H    9.104984   3.288426  -3.443516

