%chk=mol_4926.chk
# wB97XD/Def2SVP opt pop=full gfinput

C 5 H 11 N 1 O 1

1 2
C    2.525071   6.597639   2.423328
C    4.744157   4.855368   1.931111
O    6.841734   6.345833   1.125237
N    8.882129   4.730721   0.642526
C   10.929061   5.995062   0.160324
C   11.104106   8.840951   0.124892
C   13.287004   4.536685  -0.493937
H    0.890363   5.534233   3.104612
H    1.994266   7.602463   0.694985
H    3.022730   8.033642   3.826091
H    4.258177   3.481008   0.459714
H    5.248866   3.844062   3.666957
H    9.947103   9.680009   1.614601
H   10.473826   9.532289  -1.716665
H   13.062222   9.427976   0.426417
H   12.914029   2.504473  -0.502629
H   14.752676   4.948928   0.903214
H   13.948427   5.111747  -2.364879

