%chk=mol_3900.chk
# wB97XD/Def2SVP opt pop=full gfinput

C 5 H 9 N 1 O 1

1 2
C    1.911666   0.025719  -0.071564
C    4.786204  -0.098530  -0.119790
C    5.800741  -2.381962  -1.500764
C    6.235775  -1.189602  -3.997753
C    6.733245  -2.737741  -6.297513
N    6.243145   1.252983  -4.004991
O    5.744786   2.035726  -1.492317
H    1.287376   1.765533   0.859258
H    1.112727  -1.589127   0.943049
H    1.122233   0.063098  -1.984855
H    5.510782  -0.024226   1.817312
H    4.495356  -3.976834  -1.587162
H    7.625215  -2.996199  -0.745629
H    6.986412  -1.522326  -7.948452
H    5.136710  -4.007316  -6.626948
H    8.443353  -3.860597  -6.009801

