%chk=mol_1104.chk
# wB97XD/Def2SVP opt pop=full gfinput

C 6 H 12

1 2
C    1.877216   0.023092  -0.039401
C    4.745556   0.009297   0.087022
C    5.816426   2.127945   1.723865
C    8.497910   1.236315   2.232806
C    8.227150  -1.598330   2.666725
C    5.824363  -2.400991   1.272882
H    1.191094  -1.542621  -1.204247
H    1.192134   1.789986  -0.868877
H    1.036269  -0.164935   1.842162
H    5.500463   0.200405  -1.837381
H    4.768384   2.302726   3.502702
H    5.775324   3.958447   0.763506
H    9.690289   1.583874   0.573948
H    9.356469   2.198451   3.848389
H    9.890997  -2.629384   1.998196
H    8.023022  -1.995626   4.689866
H    6.234415  -3.817908  -0.179184
H    4.495640  -3.259437   2.610052

