%chk=mol_3347.chk
# wB97XD/Def2SVP opt pop=full gfinput

C 5 H 10 O 2

1 2
C    5.434418  -1.775757   1.459719
O    7.669264  -0.933260   0.233532
C    8.014121   1.725320   0.529936
C   10.494027   2.455794  -0.634797
C   12.842088   1.553412   0.649631
C   10.595883   3.153991  -3.401356
O   10.610188   5.042715  -1.451877
H    5.236488  -3.806381   1.132135
H    3.773235  -0.816381   0.685895
H    5.561521  -1.447133   3.497770
H    8.014329   2.217575   2.542551
H    6.441509   2.718522  -0.384881
H   14.535887   2.473066  -0.107261
H   13.060974  -0.486510   0.397674
H   12.764968   1.952559   2.679688
H    8.899363   2.958215  -4.528332
H   12.336019   2.841506  -4.433430

