%chk=mol_3176.chk
# wB97XD/Def2SVP opt pop=full gfinput

C 7 H 6

1 2
C    1.889726   0.000000   0.000000
C    4.618491   0.000000   0.000000
C    6.867567   0.000000   0.000000
C    9.524522   0.000000   0.000000
C   10.780208  -2.200114   0.000000
C   10.910580   2.310738   0.000000
C   12.068207   4.263222   0.000000
H    1.145136   1.929165   0.022072
H    1.145136  -0.983716   1.659652
H    1.145136  -0.945468  -1.681724
H    9.791068  -3.996960   0.000000
H   12.830787  -2.262701   0.000000
H   13.085408   5.999635   0.000000

