%chk=mol_2011.chk
# wB97XD/Def2SVP opt pop=full gfinput

C 4 H 5 N 3

1 2
N    2.044533   0.132829   0.191165
C    4.237144   0.042028   0.176614
C    6.971766   0.070959   0.134756
N    8.103523  -2.093968  -0.183096
C   10.835387  -1.364137  -0.184475
C   10.925678   1.529941  -0.460696
N    8.399379   2.219351   0.316661
H   11.686520  -1.967734   1.604340
H   11.831424  -2.295639  -1.739077
H   11.239014   2.068891  -2.433986
H   12.379426   2.388860   0.729170
H    7.647212   3.841586  -0.372163

