%chk=mol_2901.chk
# wB97XD/Def2SVP opt pop=full gfinput

C 6 H 8 O 1

1 2
C    0.784860  -0.369782  -0.094656
C    3.081539  -0.407708   0.968315
C    5.218781   1.306443   0.237198
C    7.483655  -0.240487  -0.639086
O    8.483718  -1.847226   0.713712
C    8.474194   0.302942  -3.224988
C   10.503136  -0.915364  -4.122759
H   -0.673687  -1.673258   0.528689
H    0.298426   0.943635  -1.592907
H    3.468252  -1.766422   2.467037
H    5.814007   2.434005   1.868202
H    4.637520   2.633409  -1.241134
H    7.500550   1.707330  -4.348978
H   11.486473  -2.330977  -3.005572
H   11.222138  -0.524305  -6.001355

