%chk=mol_2949.chk
# wB97XD/Def2SVP opt pop=full gfinput

C 6 H 10 O 1

1 2
C    1.857053  -0.271724   0.136684
C    4.726961  -0.032220  -0.001909
C    5.720938   2.707637   0.000000
C    4.730419   4.229094  -2.248812
O    4.860168   3.943424   2.240176
C    8.449702   2.707637   0.000000
C   10.698779   2.707637   0.000000
H    1.324490  -2.266651   0.272801
H    0.951761   0.498151  -1.553015
H    1.096986   0.699539   1.794503
H    5.401915  -1.038442  -1.687185
H    5.504508  -1.042411   1.638563
H    5.212318   3.334724  -4.053651
H    5.528677   6.143632  -2.256900
H    2.676684   4.475174  -2.157633
H    5.729423   3.153291   3.653049
H   12.712773   2.719694  -0.002891

