%chk=mol_6720.chk
# wB97XD/Def2SVP opt pop=full gfinput

C 4 H 6 N 2 S 1

1 2
S    2.759699   0.087721   2.641497
C    5.059345   0.017442   0.546112
N    6.169294  -2.146805  -0.468274
C    8.110572  -1.525576  -2.264818
C   10.462337  -0.114007  -1.556964
C    8.167793   1.373547  -2.298115
N    6.253141   2.113111  -0.516689
H    5.634748  -3.913623   0.022752
H    8.001214  -2.497122  -4.062401
H   11.033318  -0.102574   0.409712
H   12.032964  -0.160192  -2.869870
H    8.096815   2.307186  -4.117222
H    5.790348   3.908955  -0.066953

