%chk=mol_6939.chk
# wB97XD/Def2SVP opt pop=full gfinput

C 5 H 8 N 2

1 2
C    4.263695  -1.830256  -1.508833
C    3.854210   0.462586  -0.517426
C    5.772981   2.403410  -0.085850
C    6.602212   4.029992  -2.241083
N    4.948267   5.055868  -0.261425
C    6.019156   6.720943   1.408980
N    4.896621   8.650222   2.383039
H    2.718881  -3.158072  -1.752891
H    6.136111  -2.429753  -2.094176
H    1.932264   0.941008   0.040554
H    7.105124   2.010876   1.422945
H    5.658426   3.877000  -4.048360
H    8.510022   4.763754  -2.268484
H    8.003898   6.323137   1.914954
H    3.091875   8.676678   1.670386

