%chk=mol_6414.chk
# wB97XD/Def2SVP opt pop=full gfinput

C 6 H 11 N 1

1 2
C    1.864328   0.219832   0.429232
C    4.687995  -0.117163  -0.008050
C    5.374495  -2.759662  -0.944636
C    5.577754  -2.501336  -3.808705
N    6.470139   0.093806  -4.296103
C    4.450494   1.947363  -4.562479
C    5.719067   1.577506  -2.042246
H    1.423398   2.190741   0.882162
H    1.231610  -0.959773   2.008590
H    0.746291  -0.311956  -1.228719
H    5.669046   0.256738   1.778459
H    4.021564  -4.214959  -0.371709
H    7.230168  -3.288464  -0.182302
H    6.931705  -3.871425  -4.564199
H    3.754678  -2.872006  -4.722161
H    4.931959   3.629238  -5.630004
H    2.546028   1.276264  -4.883790
H    7.080823   2.956798  -1.390801

