%chk=mol_0924.chk
# wB97XD/Def2SVP opt pop=full gfinput

C 4 H 6 O 2

1 2
O    4.278964   5.671182  -1.324925
C    4.624538   4.251884  -3.110527
O    6.508878   2.527131  -3.359990
C    8.304873   2.378183  -1.320011
C   10.603234   0.791455  -1.844524
C   10.817738   3.619260  -1.782220
H    3.415737   4.175350  -4.801586
H    7.586135   2.357282   0.604013
H   10.738804  -0.143903  -3.660966
H   11.407728  -0.268001  -0.288032
H   11.755570   4.484377  -0.180582
H   11.098759   4.605017  -3.554461

