%chk=mol_6950.chk
# wB97XD/Def2SVP opt pop=full gfinput

C 5 H 8 N 2

1 2
C    3.012186  -1.066902  -1.913272
C    3.877434   0.435582  -0.066518
C    5.992492   2.312968  -0.212783
C    7.091632   3.069558  -2.818243
N    7.551478   5.863537  -2.700003
C    6.276007   6.540418  -0.719702
N    5.058041   4.739301   0.648573
H    1.455694  -2.358170  -1.558155
H    3.796120  -1.064710  -3.807307
H    2.974939   0.278489   1.775662
H    7.534281   1.704722   1.032887
H    5.796943   2.706182  -4.390798
H    8.869694   2.076960  -3.184566
H    6.153175   8.490690  -0.000548
H    4.923757   5.008549   2.536787

