%chk=mol_0527.chk
# wB97XD/Def2SVP opt pop=full gfinput

C 4 H 6 N 2

1 2
N    1.926387  -0.056030  -0.048320
C    4.452856   0.110436  -0.017612
C    6.029851   2.175112  -0.001077
C    8.547288   1.260372   0.025322
C    8.426648  -1.339854   0.023659
N    5.924329  -2.016376  -0.002778
H    0.825036   1.516883   0.013058
H    0.953650  -1.706139   0.035017
H    5.443337   4.132226  -0.009184
H   10.258662   2.378957   0.041461
H    9.894134  -2.762326   0.036604
H    5.260072  -3.803471  -0.015401

