%chk=mol_6582.chk
# wB97XD/Def2SVP opt pop=full gfinput

C 6 H 11 N 1

1 2
C    1.814912   0.015401  -0.046260
C    4.652430  -0.003288  -0.045448
C    5.992662   2.165475   0.153956
C    8.807976   2.268635   0.181376
N   10.080215  -0.013795  -0.714203
C    8.868334  -2.358170   0.088855
C    5.978659  -2.496158  -0.210213
H    1.063198  -1.910929   0.035791
H    1.091789   0.897979  -1.769936
H    1.074139   1.036345   1.593417
H    5.011157   3.964154   0.318287
H    9.410439   3.834689  -1.039463
H    9.443604   2.745867   2.092210
H   10.175060   0.047942  -2.627929
H    9.370831  -2.751422   2.057061
H    9.691461  -3.902398  -1.015274
H    5.231235  -3.750124   1.261014
H    5.507550  -3.345439  -2.040602

