%chk=mol_2278.chk
# wB97XD/Def2SVP opt pop=full gfinput

C 6 H 8 O 1

1 2
C    2.111958   0.354758  -0.152898
C    4.847242  -0.155638  -0.030122
C    6.263327  -2.151661  -0.675539
C    8.821979  -1.283502   0.098228
C    9.083630   1.535648  -0.852096
C    6.775651   1.595968   1.040143
O    8.514350  -0.022677   2.672829
H    1.063557  -1.326569  -0.742190
H    1.720822   1.867768  -1.505942
H    1.399210   0.934753   1.699657
H    5.716989  -3.934485  -1.489218
H   10.429587  -2.563999  -0.019143
H    8.682554   1.903994  -2.843962
H   10.783458   2.549014  -0.253129
H    6.211341   3.368097   1.922494

