%chk=mol_0379.chk
# wB97XD/Def2SVP opt pop=full gfinput

C 4 H 10 N 2

1 2
C    1.824625  -0.107941  -0.132224
C    4.700202   0.080332  -0.089705
C    5.891278  -1.531793  -2.161677
C    5.503922   2.836044  -0.320498
N    5.333412   4.067900  -2.568119
N    6.299950   4.097172   1.615432
H    0.989404   1.065617   1.354820
H    1.212146  -2.060765   0.173326
H    1.045019   0.531693  -1.940182
H    5.370262  -0.635458   1.736904
H    5.198825  -1.003860  -4.039724
H    5.459154  -3.534147  -1.867900
H    7.949813  -1.314512  -2.169462
H    3.976815   3.508220  -3.792964
H    5.474820   5.970061  -2.366277
H    6.333190   2.978019   3.195905

