%chk=mol_6606.chk
# wB97XD/Def2SVP opt pop=full gfinput

C 4 H 8 N 2 S 1

1 2
C    4.832672  -1.990751   0.754284
N    4.646137   0.311899  -0.700333
C    6.395608   2.229083  -0.724559
S    5.851632   4.681777  -2.651172
N    8.429955   1.852139   0.893368
C   10.993029   2.413369   0.223290
C    9.673168   3.845763   2.243540
H    3.114325  -3.094767   0.460111
H    5.039182  -1.530508   2.756789
H    6.476715  -3.063567   0.113686
H    3.171187   0.527498  -1.902765
H   11.289243   3.282171  -1.602715
H   12.304517   0.934299   0.743853
H   10.046616   3.386862   4.198140
H    9.032986   5.748830   1.870602

