%chk=mol_0612.chk
# wB97XD/Def2SVP opt pop=full gfinput

C 5 H 6 O 1

1 2
C    1.882848  -0.077517  -0.013171
C    4.657117   0.205186   0.000756
C    6.255692   2.261945   0.005008
C    8.744216   1.279080   0.019521
C    8.501179  -1.307879   0.023036
O    6.023993  -1.976880   0.011546
H    0.949172   1.767707   0.002929
H    1.254249  -1.132267   1.650789
H    1.268120  -1.096362  -1.704438
H    5.693310   4.225749  -0.001568
H   10.498808   2.323929   0.026513
H    9.832283  -2.856812   0.032673

