%chk=mol_1452.chk
# wB97XD/Def2SVP opt pop=full gfinput

C 5 H 8 N 2

1 2
C    3.920331  -0.942217   2.480114
C    4.406029   0.033278  -0.175045
C    5.432509   2.681049  -0.101875
N    4.226051   4.816081  -0.067463
N    1.670707   4.657929  -0.118448
C    8.129337   3.071240   0.019842
C   10.374200   3.387863   0.123815
H    3.192692  -2.876636   2.413180
H    2.536598   0.234439   3.470369
H    5.658634  -0.944466   3.602914
H    2.662379  -0.023187  -1.286091
H    5.775305  -1.196253  -1.125502
H    0.954463   6.374689  -0.653505
H    0.987703   4.413172   1.675299
H   12.362399   3.691334   0.214389

