%chk=mol_0555.chk
# wB97XD/Def2SVP opt pop=full gfinput

C 5 H 5 N 1

1 2
N    1.917864  -0.037020   0.035943
C    4.667624   0.000000   0.000000
C    5.578509   2.572238   0.000000
C    6.329260   4.692322   0.000000
C    7.297196   7.421427  -0.001512
C    8.054258   9.556912  -0.001852
H    1.310676  -1.855692  -0.110492
H    1.259106   0.882804  -1.521796
H    5.343862  -1.006525  -1.677094
H    5.377083  -1.017655   1.655589
H    8.724564  11.455350   0.000869

