%chk=mol_4374.chk
# wB97XD/Def2SVP opt pop=full gfinput

C 5 H 11 N 1 O 1

1 2
C    5.858869  -2.190098   0.747254
C    4.484736   0.060415   1.903200
C    5.585652   2.598770   1.032074
C    3.976853   4.792534   1.997800
N    8.173765   2.895930   1.926916
C   10.117480   3.596489   0.365379
O    9.969931   3.983392  -1.905449
H    4.955883  -3.955556   1.336074
H    7.836411  -2.260358   1.351079
H    5.812250  -2.104664  -1.319275
H    4.568205  -0.089252   3.969181
H    2.486539  -0.047923   1.365063
H    5.574957   2.660980  -1.038688
H    3.928514   4.834146   4.067806
H    2.031096   4.642452   1.309939
H    4.743855   6.605576   1.356389
H    8.526161   2.721659   3.796649
H   11.912966   3.772082   1.408148

