%chk=mol_2157.chk
# wB97XD/Def2SVP opt pop=full gfinput

C 5 H 6 O 2

1 2
C   -1.901405   0.000869  -2.448783
C   -1.047834   1.851176  -0.248121
O   -2.579533   0.000340   1.384357
C   -1.047154  -1.851100  -0.248556
C    1.737206  -1.472550   0.410959
O    3.272533   0.000775  -1.229777
C    1.739417   1.472021   0.411053
H   -3.914776   0.000888  -2.916036
H   -0.752697   0.000831  -4.162122
H   -1.843503   3.752656  -0.232928
H   -1.843863  -3.751749  -0.234043
H    2.391978  -2.413766   2.096443
H    2.392129   2.413426   2.097086

