%chk=mol_0214.chk
# wB97XD/Def2SVP opt pop=full gfinput

C 4 H 6 O 1

1 2
C    1.889726   0.000000   0.000000
C    4.618491   0.000000   0.000000
C    6.867567   0.000000   0.000000
C    9.596332   0.000000   0.000000
O   10.521315   2.522822  -0.046468
H    1.145117   1.929165   0.022072
H    1.145004  -0.983659   1.659652
H    1.145023  -0.945411  -1.681724
H   10.349992  -0.991502  -1.650525
H   10.348669  -0.921034   1.690379
H    9.592136   3.393703  -1.371280

