%chk=mol_5098.chk
# wB97XD/Def2SVP opt pop=full gfinput

C 4 H 8 N 2 O 1

1 2
C    3.247929  -1.748545   2.262607
N    5.164130  -0.653259   0.647231
C    6.114795   1.746598   0.944976
C    8.177657   2.700740  -0.163461
C    8.943186   5.339535   0.350601
N   11.000436   6.101397  -0.989952
O    7.864832   6.746492   1.829425
H    2.532724  -3.492214   1.412873
H    1.653643  -0.453629   2.509254
H    4.039346  -2.202646   4.118110
H    6.329997  -1.907868  -0.223120
H    4.991900   2.917850   2.217253
H    9.306712   1.583950  -1.446321
H   11.913098   5.009097  -2.257524
H   11.592185   7.900057  -0.731513

