%chk=mol_4974.chk
# wB97XD/Def2SVP opt pop=full gfinput

C 5 H 11 N 1 O 1

1 2
C    2.043437  -0.015099   0.241961
N    4.785070   0.036642  -0.034941
C    5.917450   1.962197   1.677548
C    8.055354   0.006973   2.231540
C    9.007474  -0.070147   4.932998
O   10.202783   0.099362   0.525552
C    5.978375  -1.969303   1.541317
H    1.267666  -1.650997  -0.761938
H    1.218684   1.678984  -0.615748
H    1.403556  -0.110549   2.210923
H    4.785769   2.489412   3.334441
H    6.527586   3.689955   0.719116
H    7.448884  -0.136552   6.292599
H   10.144182   1.606003   5.358923
H   10.189611  -1.739342   5.247127
H    9.410459   0.144696  -1.139467
H    6.639628  -3.606429   0.464381
H    4.864892  -2.646297   3.155824

