%chk=mol_1203.chk
# wB97XD/Def2SVP opt pop=full gfinput

C 5 H 10 N 2

1 2
C    1.818540  -0.272687  -0.250143
C    4.616468   0.076250  -0.067482
C    5.814120   2.303501   0.202295
C    4.608513   4.862265   0.294684
C    8.623898   2.225984   0.397579
N   10.000166   4.238750   0.635628
N   12.504375   3.741884   0.771726
H    1.325000  -2.209487   0.274955
H    1.175164   0.047659  -2.185544
H    0.796368   0.979615   1.033794
H    5.705045  -1.669195  -0.151877
H    2.560976   4.787999   0.037870
H    5.363213   6.069555  -1.209897
H    4.979787   5.771696   2.115756
H    9.491547   0.320139   0.333877
H   13.440582   5.362098   1.259106
H   13.201929   3.277163  -0.970960

