%chk=mol_1495.chk
# wB97XD/Def2SVP opt pop=full gfinput

C 6 H 13 N 1

1 2
C    6.505723  -1.314437  -0.883901
C    5.082797   0.146076   1.151108
N    5.941185   2.783982   1.402271
C    4.238996   4.144320   3.115554
C    8.591092   2.981326   2.260264
C   10.641804   3.319247   0.313335
C    9.970233   5.461705   2.035443
H    5.644706  -3.178406  -1.145193
H    8.485890  -1.614128  -0.367779
H    6.439827  -0.326639  -2.700778
H    5.239530  -0.859277   2.958083
H    3.078780   0.132130   0.617052
H    2.291198   4.086174   2.415920
H    4.759691   6.144237   3.232414
H    4.276847   3.353886   5.029620
H    9.062220   1.844524   3.910335
H   10.098639   3.477852  -1.655854
H   12.419242   2.352067   0.619188
H   11.291680   5.953469   3.519596
H    8.988217   7.061453   1.218439

