%chk=mol_2317.chk
# wB97XD/Def2SVP opt pop=full gfinput

C 6 H 12 O 1

1 2
C    1.799511  -0.035187   0.089894
C    4.663126  -0.019748   0.023640
C    5.994986   1.963066   1.715815
C    8.026876  -0.056125   2.320867
C   10.424145   0.104804   0.740281
C    6.024409  -2.088317   1.604755
O    6.883290  -4.288771   0.258571
H    1.059966  -1.667494  -0.942047
H    1.044319   1.673334  -0.796255
H    1.079978  -0.123116   2.027298
H    5.334999   0.050210  -1.940938
H    4.897868   2.538960   3.377356
H    6.650778   3.664122   0.741812
H    8.529883  -0.104313   4.332084
H   10.015378   0.204544  -1.286072
H   11.624688  -1.548101   1.071739
H   11.514139   1.789042   1.250073
H    4.924418  -2.685169   3.260231
H    7.700521  -3.660702  -1.261203

