%chk=mol_4388.chk
# wB97XD/Def2SVP opt pop=full gfinput

C 4 H 10 N 2 O 1

1 2
C    2.625680  -1.074574   0.319685
C    5.435136  -1.008622  -0.269097
C    6.583522   1.566942   0.328378
C    9.365199   1.580548  -0.348692
N   10.108826   2.171333  -2.616307
N   11.095074   0.896694   1.467864
O   13.549034   1.699563   0.886867
H    1.846678  -2.940622  -0.115746
H    1.599993   0.326677  -0.804872
H    2.277063  -0.684081   2.321037
H    5.726267  -1.468298  -2.268522
H    6.400181  -2.481267   0.823562
H    6.372365   2.004489   2.341673
H    5.622672   3.058238  -0.740621
H    8.578601   2.593498  -3.731170
H   10.613174   1.114220   3.314750
H   13.468229   1.896661  -0.964875

