%chk=mol_4853.chk
# wB97XD/Def2SVP opt pop=full gfinput

C 5 H 7 N 1 O 1

1 2
C    2.063959  -0.082430   1.031167
C    4.762110   0.000000   0.000000
O    4.643851  -1.033642  -2.510029
C    6.721623  -2.185053  -3.511791
C    9.016829  -2.533764  -2.512391
C    5.672996   2.572238   0.000000
N    6.399047   4.622572   0.000000
H    1.967016   0.647817   2.965113
H    1.348282  -2.025239   1.024156
H    0.774920   1.030657  -0.149269
H    5.905451  -1.207063   1.235012
H    6.269204  -2.856151  -5.401536
H    9.566890  -1.888233  -0.648894
H   10.456214  -3.507653  -3.601421

