%chk=mol_5690.chk
# wB97XD/Def2SVP opt pop=full gfinput

C 5 H 11 N 1 O 1

1 2
N    1.638922   0.185911  -0.429176
C    4.370596  -0.124325  -0.530673
C    5.681707   2.276818   0.392817
C    8.536762   1.936535   0.328661
C    9.834890   2.040488  -2.262248
O   11.583945   3.952570  -1.385075
C   10.106142   4.308179   0.889929
H    0.784973  -1.404577  -1.099839
H    1.095436   1.620138  -1.595288
H    4.945508  -0.563573  -2.468946
H    4.917464  -1.730762   0.653505
H    5.085688   2.695467   2.335437
H    5.114941   3.894064  -0.776451
H    9.156876   0.317002   1.466673
H    8.694818   2.746528  -3.836144
H   10.809857   0.308347  -2.826369
H   11.276752   4.204886   2.589397
H    9.098011   6.113472   0.844462

