%chk=mol_0039.chk
# wB97XD/Def2SVP opt pop=full gfinput

C 3 H 6 O 1

1 2
C    1.886665  -0.009279  -0.013927
C    4.727509   0.065063   0.009600
C    6.095293  -2.427788  -0.010053
O    5.893659   2.076525   0.034393
H    1.138220   1.916768   0.001096
H    1.205645  -1.002178   1.664225
H    1.232404  -0.966066  -1.724677
H    4.747427  -3.994503   0.033448
H    7.307855  -2.555156   1.658046
H    7.226048  -2.573429  -1.732955

