%chk=mol_2897.chk
# wB97XD/Def2SVP opt pop=full gfinput

C 6 H 14 O 1

1 2
C   14.678297   0.565009   4.293855
C   12.611012   2.329635   3.363996
C   10.166972   0.900719   2.812612
C    8.075329   2.675947   1.935817
O    5.881659   1.202546   1.399815
C    3.806173   2.747189   0.643282
C    1.599048   1.042845  -0.016025
H   16.416485   1.626242   4.655095
H   15.096852  -0.894445   2.888862
H   14.119089  -0.368043   6.053775
H   13.261040   3.293812   1.649712
H   12.268556   3.787691   4.794972
H    9.533669  -0.120583   4.502820
H   10.494387  -0.547567   1.365270
H    8.660086   3.683265   0.223895
H    7.640805   4.055447   3.417778
H    4.336638   3.879192  -1.007111
H    3.282020   4.012115   2.195370
H    2.110767  -0.245853  -1.550501
H   -0.040157   2.156008  -0.598098
H    1.072665  -0.128086   1.605077

