%chk=mol_4144.chk
# wB97XD/Def2SVP opt pop=full gfinput

C 4 H 4 N 2 O 1

1 2
C    1.968811   0.042009   0.010469
C    4.757253  -0.141219   0.003231
N    6.145881  -2.142609   0.003231
C    8.589958  -1.182420  -0.002721
O   10.465492  -2.526658  -0.005083
N    8.713263   1.441162  -0.005612
C    6.393019   2.132896  -0.001928
H    1.131662  -1.846206  -0.003118
H    1.339684   1.075254  -1.663809
H    1.347280   1.047721   1.704231
H    5.564185   4.033772  -0.002249

