%chk=mol_1289.chk
# wB97XD/Def2SVP opt pop=full gfinput

C 6 H 13 N 1

1 2
C    5.688737  -2.059594  -0.289638
C    5.016354  -0.054972   1.666909
C    6.639024   2.359928   1.455354
C    5.770411   4.405481   3.355209
N    3.183187   5.268462   2.901297
C    9.408701   1.786982   1.903937
C   11.240696   2.202740   0.209325
H    4.366836  -3.645792  -0.160003
H    7.592976  -2.807491   0.009127
H    5.578358  -1.290929  -2.206803
H    5.195481  -0.875246   3.563079
H    3.016494   0.424867   1.414271
H    6.406738   3.125135  -0.461698
H    7.031104   6.047218   3.243961
H    5.891240   3.675895   5.291120
H    3.068254   6.050109   1.144494
H    2.759491   6.676686   4.145303
H    9.908552   0.979445   3.730036
H   10.841793   2.994025  -1.641397
H   13.194238   1.744916   0.641222

