%chk=mol_1333.chk
# wB97XD/Def2SVP opt pop=full gfinput

C 5 H 8 N 2

1 2
C    1.233500   0.261255  -0.019086
C    4.016613   0.008353   0.381725
C    5.671503   1.860908  -0.103651
C    8.397168   1.459228   0.344119
N   10.039926   3.213196  -0.106959
N   12.469471   2.384948   0.461358
C   14.099322   4.139313   0.004535
H    0.583113  -1.169155  -1.362984
H    0.716112   2.122900  -0.757119
H    0.235951  -0.024396   1.769313
H    4.663069  -1.804707   1.108400
H    5.117321   3.695322  -0.827398
H    8.958398  -0.412357   1.081906
H   16.120611   3.792057   0.353171
H   13.574735   6.017058  -0.734480

