%chk=mol_5489.chk
# wB97XD/Def2SVP opt pop=full gfinput

C 4 H 8 N 2 O 1

1 2
N    1.724999  -0.027344  -0.709460
C    4.383692   0.062758   0.039136
C    6.232279  -1.538558  -1.396432
C    6.295982   1.298015  -1.682102
C    8.284124   2.955210  -0.600064
N    9.874216   1.952201   1.160386
O    8.469431   5.161862  -1.262091
H    0.845615   1.642002  -0.307780
H    0.772029  -1.382259   0.275749
H    4.693607   0.255567   2.062731
H    5.542302  -2.621012  -2.996671
H    7.695437  -2.507912  -0.350676
H    5.590471   2.011840  -3.475112
H    9.767200   0.159928   1.790893
H   11.214655   3.106011   1.883433

