%chk=mol_1136.chk
# wB97XD/Def2SVP opt pop=full gfinput

C 4 H 7 N 1 O 1

1 2
O    2.140172  -1.069169  -1.415991
C    4.201277  -0.571321  -0.495543
N    5.875177   1.077238  -1.567698
C    8.246084   1.727852  -0.482749
C   10.482934  -0.009449  -0.703054
C   10.438016   2.429130  -2.150017
H    4.884715  -1.411833   1.283785
H    5.290723   1.908548  -3.190897
H    8.059568   2.788782   1.268687
H   10.271890  -1.751341  -1.759713
H   11.750809  -0.149704   0.899529
H   11.671005   3.940873  -1.525009
H   10.205806   2.324628  -4.182191

