%chk=mol_6966.chk
# wB97XD/Def2SVP opt pop=full gfinput

C 5 H 10 N 2

1 2
C    4.563972  -0.872864  -3.007367
C    4.632002   0.121887  -0.308479
C    6.324422   2.436235  -0.036150
C    6.670223   3.254619   2.705294
N    6.687854   5.998860   2.452392
N    5.342898   6.774517   0.415230
C    5.147293   4.816118  -1.033435
H    3.384821  -2.569612  -3.110187
H    6.461522  -1.373415  -3.660721
H    3.775257   0.526572  -4.308972
H    5.325834  -1.388552   0.929235
H    2.695789   0.562458   0.287030
H    8.145759   2.166779  -0.986361
H    8.428878   2.540642   3.522657
H    5.082966   2.660545   3.895293
H    6.174567   6.916757   4.069714
H    4.251487   4.873622  -2.905926

