%chk=mol_4724.chk
# wB97XD/Def2SVP opt pop=full gfinput

C 4 H 8 N 2 O 1

1 2
C    3.712084  -1.558155   0.887283
C    6.048787  -0.472961  -0.375942
N    6.281544   2.188681   0.350299
C    8.235559   3.257264  -0.586023
N    8.652527   5.734582  -0.047753
C   10.642768   7.137288  -0.913078
O   10.952777   9.372078  -0.408842
H    3.473676  -3.548641   0.380534
H    2.013106  -0.530200   0.305588
H    3.856742  -1.423587   2.947028
H    5.859663  -0.650311  -2.431794
H    7.714731  -1.545342   0.231397
H    9.647033   2.342486  -1.817180
H    7.379135   6.610961   1.071002
H   11.960228   6.068837  -2.122238

