%chk=mol_0137.chk
# wB97XD/Def2SVP opt pop=full gfinput

C 5 H 10

1 2
C    1.848228  -0.141087   0.039703
C    4.721991  -0.107677   0.053536
C    5.746242   2.591344  -0.058204
C    8.584648   2.618877  -0.026588
C   10.014453   3.554631  -1.891049
H    1.154075  -2.087637   0.123248
H    1.105263   0.731853  -1.682366
H    1.086989   0.882597   1.668212
H    5.419923  -1.200278  -1.563030
H    5.400497  -1.057075   1.767234
H    5.062614   3.670547   1.573405
H    5.024801   3.541819  -1.753080
H    9.504737   1.839006   1.639375
H    9.187206   4.361772  -3.586549
H   12.062613   3.530840  -1.756614

