%chk=mol_1520.chk
# wB97XD/Def2SVP opt pop=full gfinput

C 6 H 15 N 1

1 2
C    5.183027  -2.301687  -0.729378
C    4.669268  -0.434505   1.405900
N    5.936027   2.018719   1.043469
C    4.787205   3.987001   2.642253
C    5.113826   3.674327   5.490940
C    8.697408   1.811189   1.302135
C   10.116101   4.276280   0.818044
H    3.977892  -3.970296  -0.506314
H    7.143411  -2.957346  -0.732609
H    4.764189  -1.462384  -2.573996
H    5.197918  -1.295842   3.215558
H    2.615683  -0.145925   1.453086
H    2.757734   4.087799   2.221354
H    5.511027   5.845376   2.081628
H    4.257156   1.919697   6.170901
H    4.183098   5.239871   6.474088
H    7.104784   3.692090   6.045007
H    9.411422   0.460035  -0.094071
H    9.224377   1.073024   3.164951
H    9.555476   5.121479  -0.985681
H   12.152186   3.910996   0.737995
H    9.799288   5.657481   2.324250

