%chk=mol_0128.chk
# wB97XD/Def2SVP opt pop=full gfinput

C 5 H 10

1 2
C   -1.474818  -1.868259  -0.358141
C   -2.218387   0.768249   0.497603
C   -0.005972   2.371039  -0.384956
C    2.305504   0.729963   0.126328
C    1.362398  -2.000407   0.129843
H   -2.513185  -3.347404   0.646078
H   -1.849097  -2.088790  -2.384041
H   -2.379789   0.838131   2.561184
H   -4.012985   1.384753  -0.319364
H   -0.167468   2.745281  -2.417942
H    0.091274   4.191129   0.591673
H    3.776485   1.036212  -1.294481
H    3.120845   1.191416   1.973214
H    2.318618  -3.148586  -1.301114
H    1.737603  -2.869719   1.973328

