%chk=mol_6443.chk
# wB97XD/Def2SVP opt pop=full gfinput

C 4 H 8 N 2 S 1

1 2
C    1.845412  -0.028762   0.195738
C    4.705248  -0.020031   0.053328
C    5.940732   2.214343   1.422302
N    8.197821   1.117263   2.482363
C    8.033906  -1.486043   2.503812
S   10.113493  -3.428795   3.753393
N    5.833188  -2.186753   1.283219
H    1.071720  -1.679494  -0.785011
H    1.062971   1.670745  -0.685441
H    1.183044  -0.108848   2.156159
H    5.324870  -0.070147  -1.924781
H    4.793952   2.921668   2.991191
H    6.427280   3.770419   0.156791
H    9.568742   2.052885   3.434634
H    5.533723  -4.014799   0.800488

