%chk=mol_3718.chk
# wB97XD/Def2SVP opt pop=full gfinput

C 6 H 8 O 1

1 2
O    2.110786  -0.628032   0.194925
C    4.467879   0.449018  -0.559983
C    5.277835  -0.755588  -3.073583
C    7.851623  -0.017329  -3.832516
C    9.946044   0.591163  -4.459961
C    4.068127   3.257756  -0.737390
C    5.314703   4.974458   0.644491
H    1.588183   0.268946   1.712564
H    5.851650  -0.011168   0.913456
H    3.925585  -0.268001  -4.568413
H    5.180646  -2.819471  -2.894758
H   11.800508   1.140620  -5.021361
H    2.664419   3.899847  -2.096330
H    6.743488   4.431030   2.013295
H    4.940160   6.978702   0.412489

