%chk=mol_1251.chk
# wB97XD/Def2SVP opt pop=full gfinput

C 6 H 9 N 1

1 2
C    2.501298   0.518786   0.148287
C    5.325778   0.021751  -0.224008
C    5.719559  -1.472588  -2.550526
C    6.044629  -2.691575  -4.439212
N    6.646356   2.462426  -0.435733
C    7.476134   3.506198   1.982058
C    9.337571   2.331771   0.177956
H    2.150943   1.581682   1.890236
H    1.453351  -1.263433   0.280246
H    1.695991   1.592359  -1.431165
H    5.999238  -1.096551   1.391084
H    6.334891  -3.755207  -6.122977
H    7.015854   2.503471   3.705488
H    7.436337   5.547990   2.125413
H   10.549528   3.575362  -0.905802
H   10.152705   0.513911   0.647193

