%chk=mol_4536.chk
# wB97XD/Def2SVP opt pop=full gfinput

C 4 H 7 N 1 O 2

1 2
C    1.243837   0.535208   0.209079
C    3.972866   0.216109   0.858333
C    5.866353   1.350058  -0.384710
N    8.378819   1.075670   0.175234
O    8.989257  -0.546017   2.210186
C   10.387957   2.186904  -1.037290
O   12.608272   1.849078  -0.453024
H    0.413982  -1.300075  -0.254584
H    0.967653   1.794862  -1.406826
H    0.223611   1.322336   1.824360
H    4.382124  -1.027142   2.445192
H    5.455961   2.593347  -1.967904
H   10.838845  -0.460167   2.212718
H    9.821852   3.428757  -2.609617

