%chk=mol_2611.chk
# wB97XD/Def2SVP opt pop=full gfinput

C 6 H 12 O 1

1 2
C    3.795704  -3.062830  -0.555939
C    3.199155  -0.258647  -0.369725
C    5.485932   1.321977   0.264146
C    6.967987   0.739129   2.628666
C    5.419754   1.052029   5.028523
C    6.769887   2.791636  -1.834811
O    5.064542   3.982258  -0.102499
H    2.141513  -4.104277  -1.232101
H    4.316645  -3.842796   1.287830
H    5.362154  -3.409368  -1.860832
H    1.722901   0.041933   1.050385
H    2.394245   0.357461  -2.179289
H    8.623123   1.982058   2.755977
H    7.710536  -1.191208   2.527641
H    4.692171   2.981024   5.195972
H    6.588587   0.656907   6.688421
H    3.808762  -0.243283   5.065165
H    6.132445   2.543118  -3.763692
H    8.757256   3.249705  -1.663394

