%chk=mol_5920.chk
# wB97XD/Def2SVP opt pop=full gfinput

C 4 H 6 N 2 O 1

1 2
N    1.673712   4.460075  -0.241337
N    4.225106   4.648405  -0.236632
C    5.340612   2.494627   0.030368
O    7.879232   2.207106   0.079557
C    9.314290   4.491388  -0.159795
C   12.014539   3.874978   0.016403
C   14.222986   3.373709   0.166863
H    0.911906   6.186756   0.188859
H    1.033945   4.110400  -2.035216
H    4.393802   0.651143   0.246364
H    8.801305   5.804993   1.356767
H    8.917957   5.366236  -1.996760
H   16.180080   2.919967   0.305304

