%chk=mol_0220.chk
# wB97XD/Def2SVP opt pop=full gfinput

C 5 H 7 N 1

1 2
C   -2.566853   0.181848  -0.737220
C   -0.884335  -1.289474   1.232763
N   -1.038764   1.183384   2.744222
C   -0.563252   2.230425   0.079652
C    1.963936   1.176959  -0.514138
C    1.745408  -1.216549   0.270231
H   -2.501808  -0.467102  -2.699776
H   -4.536552   0.537287  -0.200953
H   -1.579962  -3.000469   2.141154
H   -2.790993   1.570873   3.438942
H   -0.920051   4.233648  -0.229356
H    3.567935   2.123466  -1.330254
H    3.126476  -2.708223   0.253186

