%chk=mol_1327.chk
# wB97XD/Def2SVP opt pop=full gfinput

C 5 H 14 N 2

1 2
C    5.387855  -1.428501  -2.015809
C    4.675938   0.048396   0.349883
C    5.812079   2.742276   0.461055
C    4.819633   4.180868   2.802785
N    2.066359   4.458280   2.780713
C    8.728740   2.647298   0.486321
N    9.868622   5.163034   0.454744
H    4.307650  -3.191558  -2.099051
H    7.391210  -1.936176  -2.026202
H    4.970528  -0.342229  -3.725633
H    5.254724  -1.031431   2.021799
H    2.608257   0.162611   0.403173
H    5.207027   3.766791  -1.241966
H    5.643818   6.077076   2.895778
H    5.372189   3.183168   4.531544
H    1.548158   5.480225   1.232744
H    1.534647   5.501749   4.310238
H    9.434893   1.626336  -1.167170
H    9.389067   1.633744   2.166949
H    9.377690   6.069763  -1.173180
H   11.787242   4.988140   0.407992

