%chk=mol_6117.chk
# wB97XD/Def2SVP opt pop=full gfinput

C 4 H 7 N 1 O 2

1 2
O    5.992321  -1.859207  -1.187145
C    4.614541   0.031445   0.139197
C    5.954678   2.570179  -0.036188
C    6.238685   3.515382  -2.714384
C    5.838158   6.232789  -2.216347
N    4.855954   6.781736  -0.054367
O    4.492087   4.467539   1.236637
H    5.093360  -3.445689  -0.940687
H    4.428743  -0.539309   2.120821
H    2.702705   0.146586  -0.647817
H    7.813186   2.459762   0.877305
H    4.768214   2.855168  -4.008374
H    8.101785   3.144863  -3.518613
H    6.280391   7.655810  -3.661250

