%chk=mol_3553.chk
# wB97XD/Def2SVP opt pop=full gfinput

C 6 H 8 O 1

1 2
O    1.864101  -0.157528  -0.462529
C    4.484471  -0.009997   0.015760
C    5.716497  -2.319809  -1.037932
C    7.569714  -1.745332  -2.666101
C    7.837261   1.056621  -2.975449
C    5.696731   2.140209  -1.422113
C    4.967240   4.565144  -1.473627
H    1.167227   1.489860  -0.061265
H    4.833541   0.136155   2.049729
H    5.150883  -4.213957  -0.525514
H    8.724393  -3.109110  -3.658000
H    9.668613   1.674316  -2.234469
H    7.668490   1.588012  -4.964670
H    5.951334   5.936121  -2.646713
H    3.381325   5.247656  -0.370141

