%chk=mol_2529.chk
# wB97XD/Def2SVP opt pop=full gfinput

C 6 H 10 O 1

1 2
C    1.800399   0.320365   0.381573
C    4.537629  -0.294571  -0.230452
O    4.711768  -2.855924  -1.137710
C    5.101448  -2.825613  -3.825562
C    6.101869  -0.276372  -4.466764
C    4.396618   1.981869  -4.707365
C    5.664700   1.360981  -2.229688
H    1.583912   2.294165   0.955823
H    1.122573  -0.897280   1.911741
H    0.559529  -0.036018  -1.235238
H    5.666589  -0.181735   1.501652
H    6.435028  -4.328758  -4.309105
H    3.297515  -3.202878  -4.761222
H    7.940969  -0.281947  -5.349248
H    5.095193   3.599097  -5.755066
H    2.384438   1.672238  -4.915971
H    7.188669   2.544384  -1.557985

