%chk=mol_2261.chk
# wB97XD/Def2SVP opt pop=full gfinput

C 5 H 8 O 2

1 2
C    1.604907  -0.060055  -0.375848
C    4.338755   0.015099   0.288202
C    6.274609  -1.594381  -1.035816
O    5.643063  -2.703953  -3.443194
C    5.595706  -0.695325  -5.266591
O    5.660108   1.706196  -4.002988
C    6.285418   1.228511  -1.393163
H    0.690959   1.696275   0.220304
H    0.685328  -1.623615   0.616655
H    1.252303  -0.300221  -2.395681
H    4.580129   0.269607   2.310511
H    7.770346  -2.442717   0.074739
H    7.251352  -0.857123  -6.494176
H    3.867910  -0.831083  -6.391621
H    7.787940   2.315803  -0.529426

