%chk=mol_0108.chk
# wB97XD/Def2SVP opt pop=full gfinput

C 3 H 5 N 1 O 1

1 2
N    1.846640  -0.100363   0.372937
C    4.420504   0.086134   0.157735
C    5.772150   2.218633   0.116747
C    8.548120   2.111240  -0.101006
O    9.825348   4.039138  -0.190579
H    1.076766  -1.641435  -0.484545
H    0.878798   1.521135   0.003931
H    5.326987  -1.758787   0.037965
H    4.934169   4.079805   0.250105
H    9.400632   0.211838  -0.185684

