%chk=mol_4917.chk
# wB97XD/Def2SVP opt pop=full gfinput

C 4 H 9 N 1 O 2

1 2
C    8.105111   7.717037  -4.125971
C    5.884267   6.944044  -2.484442
O    6.525054   7.188480   0.138517
C    7.725786   5.178927   1.177186
O    8.298543   3.235249   0.072887
N    8.230494   5.696032   3.645565
C    9.737589   4.047264   5.187469
H    7.596812   7.646456  -6.127947
H    9.729029   6.474239  -3.814337
H    8.719668   9.637055  -3.659511
H    5.242950   5.024763  -2.927318
H    4.287940   8.212730  -2.836573
H    7.833860   7.473470   4.218020
H    9.260849   2.073313   4.807218
H    9.383170   4.491765   7.171624
H   11.729568   4.368102   4.743931

