%chk=mol_0362.chk
# wB97XD/Def2SVP opt pop=full gfinput

C 5 H 7 N 1

1 2
C    1.842918  -0.358122   0.256814
C    4.646591   0.141597  -0.163178
C    5.278931   2.919532  -0.084112
C    5.905375   4.207249  -2.182312
C    5.276153   4.185082   2.303160
N    5.270030   5.204136   4.244854
H    1.457489  -2.387707   0.141484
H    0.691980   0.592618  -1.176827
H    1.226905   0.297859   2.119800
H    5.198448  -0.677108  -1.986707
H    5.751778  -0.862131   1.275603
H    5.950427   3.303260  -4.025116
H    6.386613   6.205180  -2.121104

