%chk=mol_1108.chk
# wB97XD/Def2SVP opt pop=full gfinput

C 4 H 5 N 1 O 1

1 2
O    2.282638   0.216808   0.939647
C    4.471961   0.057731   0.244360
C    5.996706  -2.351216  -0.134265
C    8.484096  -1.252321  -0.982884
C    8.379556   1.266173  -1.065106
N    6.047558   2.059310  -0.353247
H    5.141983  -3.520843  -1.604056
H    6.186038  -3.371423   1.649618
H   10.119937  -2.377370  -1.456072
H    9.846248   2.585278  -1.596346
H    5.465636   3.875167  -0.249954

