%chk=mol_4791.chk
# wB97XD/Def2SVP opt pop=full gfinput

C 4 H 8 N 2 O 1

1 2
C    1.878161   0.121396  -0.247025
C    4.706571  -0.093012  -0.064572
N    5.966546  -2.199830  -0.007634
O    4.346653  -4.289999  -0.080578
C    6.211095   2.273964  -0.003156
C    5.392485   4.596494   1.435493
N    7.251559   2.892490   2.508026
H    1.306254   2.045477  -0.730814
H    1.040257  -0.398203   1.568699
H    1.161879  -1.145571  -1.714152
H    5.520967  -5.698167   0.107563
H    7.488361   2.531931  -1.585499
H    3.573226   4.619417   2.371134
H    6.069725   6.423330   0.808708
H    9.053281   3.554707   2.318486

