%chk=mol_3333.chk
# wB97XD/Def2SVP opt pop=full gfinput

C 5 H 10 O 2

1 2
C    2.913901  -1.205059  -1.803101
O    4.242605  -0.160948   0.283062
C    5.661204   2.150584  -0.147871
C    7.976213   1.655797  -1.788777
C    4.151747   4.550555  -0.835391
O    5.372548   5.986501   1.155114
C    6.300025   3.661666   2.271602
H    1.677793  -2.704576  -1.102901
H    4.241793  -2.026353  -3.156145
H    1.752060   0.230414  -2.730843
H    9.156007   3.347688  -1.976106
H    7.430838   1.075821  -3.697967
H    9.148013   0.157698  -0.971357
H    2.107725   4.451911  -0.528027
H    4.528615   5.353802  -2.702252
H    8.302172   3.795024   2.767088
H    5.209635   3.155729   3.955801

