%chk=mol_0122.chk
# wB97XD/Def2SVP opt pop=full gfinput

C 3 H 3 N 1 S 1

1 2
S   -0.936624  -2.642329  -0.003364
C   -2.453790   0.223630  -0.002249
C   -0.698084   2.147749  -0.001795
N    1.801381   1.396262  -0.002324
C    1.908567  -1.086139  -0.003156
H   -4.491237   0.357555  -0.001965
H   -1.140752   4.145247  -0.001077
H    3.683208  -2.103719  -0.003704

