%chk=mol_0191.chk
# wB97XD/Def2SVP opt pop=full gfinput

C 4 H 4 O 1

1 2
O   -0.673990  -2.050277  -0.008069
C   -2.151661   0.047621  -0.004120
C   -0.683646   2.191364   0.002041
C    1.858016   1.355047   0.001852
C    1.762283  -1.243837  -0.004403
H   -4.166185  -0.291641  -0.006349
H   -1.363230   4.118393   0.006161
H    3.550417   2.496914   0.005783
H    3.179237  -2.714232  -0.006898

