%chk=mol_1270.chk
# wB97XD/Def2SVP opt pop=full gfinput

C 6 H 13 N 1

1 2
C    1.687563  -0.994620   0.876776
C    4.384108  -0.520884  -0.074096
C    5.287359  -2.814974  -1.597008
C    4.605924   2.032589  -1.519151
N    7.260952   2.664948  -1.986575
C    3.045180   2.141494  -3.911487
C    3.850827   2.547974  -6.280788
H    0.993486   0.622854   1.966241
H    1.638336  -2.651248   2.118818
H    0.367476  -1.346354  -0.677675
H    5.585974  -0.392610   1.614280
H    4.171098  -3.080575  -3.319493
H    5.117057  -4.544489  -0.470239
H    7.276069  -2.635715  -2.136203
H    3.869706   3.522619  -0.276788
H    8.052595   1.299073  -3.084449
H    8.223332   2.630971  -0.321329
H    1.018449   1.908113  -3.644450
H    5.827518   2.858173  -6.720811
H    2.521254   2.612981  -7.839907

