%chk=mol_0761.chk
# wB97XD/Def2SVP opt pop=full gfinput

C 4 H 8 O 2

1 2
C    1.645214  -0.472488  -0.116199
C    4.477800   0.040913  -0.253053
C    5.739703  -1.707216  -2.162716
O    4.902139   2.592685  -1.096703
C    4.832219   4.399736   0.718190
O    4.447924   4.087024   2.970196
H    0.736804   0.772482   1.263282
H    1.266211  -2.431284   0.427305
H    0.737862  -0.100458  -1.939199
H    5.357223  -0.266262   1.598784
H    4.967070  -1.417087  -4.061211
H    5.493793  -3.692884  -1.641303
H    7.766094  -1.302002  -2.277725
H    5.182668   6.251328  -0.162857

