%chk=mol_4720.chk
# wB97XD/Def2SVP opt pop=full gfinput

C 4 H 12 N 2 O 1

1 2
C    5.794221  -1.890803  -2.220409
C    5.007075  -0.176841  -0.037757
N    5.748377  -1.297297   2.403807
C    6.001033   2.577341  -0.311748
N    5.358262   4.075705   1.983853
C    8.877876   2.781734  -0.715602
O    9.592269   5.385342  -0.699747
H    5.258995  -1.051444  -4.034943
H    4.855368  -3.731264  -2.080815
H    7.834824  -2.232749  -2.244409
H    2.934707  -0.079746  -0.031710
H    7.649479  -1.623180   2.423328
H    4.933621  -3.038339   2.572711
H    5.055490   3.494935  -1.912214
H    5.822624   2.932231   3.486979
H    3.433273   4.168018   2.104720
H    9.447157   1.984137  -2.534765
H    9.938107   1.830483   0.785143
H    8.477406   6.135261   0.585437

