%chk=mol_4261.chk
# wB97XD/Def2SVP opt pop=full gfinput

C 5 H 11 N 1 O 1

1 2
C    1.106000   1.050933   0.678166
C    3.567727   0.309991  -0.609682
C    5.795506   1.924289   0.199328
C    6.945008   1.289077   2.742862
O    5.574144   2.513752   4.707742
C    7.512663   2.928887  -1.866464
N    5.771375   4.612765  -0.557979
H   -0.437188  -0.152917   0.009543
H    0.608681   3.015455   0.263522
H    1.230306   0.841949   2.729917
H    3.292224   0.432067  -2.661150
H    3.980992  -1.680552  -0.204676
H    8.910002   1.928768   2.865259
H    6.927925  -0.749201   3.092745
H    4.606661   3.868874   3.922504
H    7.060830   2.531383  -3.824012
H    9.507231   3.196132  -1.488046
H    6.745510   5.720560   0.691243

