%chk=mol_6620.chk
# wB97XD/Def2SVP opt pop=full gfinput

C 3 H 8 O 3 S 1

1 2
C    6.752445   3.973093   4.147118
O    7.933505   1.953693   2.823005
C    7.836430   2.287627   0.127179
S   10.037545   4.495772  -1.243307
C   12.938501   3.670302   0.227334
O   10.269924   3.918574  -3.914209
O    9.373911   7.030594  -0.432350
H    6.715954   3.486960   6.155405
H    4.805838   4.239450   3.502796
H    7.828663   5.721146   3.935997
H    5.931000   2.817053  -0.485433
H    8.288074   0.453837  -0.716792
H   12.785453   4.003120   2.256730
H   14.423807   4.859884  -0.570376
H   13.340162   1.684766  -0.162819

