%chk=mol_1543.chk
# wB97XD/Def2SVP opt pop=full gfinput

C 7 H 12

1 2
C    1.892617   0.029593  -0.112703
C    4.757027  -0.026381   0.099456
C    5.809585   2.121974   1.718952
C    8.484511   1.252529   2.330618
C    8.175976  -1.556397   2.601548
C    9.772397  -3.070975   3.849183
C    5.746015  -2.420342   1.395997
H    1.214281  -1.553582  -1.259465
H    1.259880   1.786906  -1.003199
H    0.991936  -0.099607   1.747921
H    5.569269   0.102631  -1.806068
H    4.710898   2.347342   3.463396
H    5.796546   3.933238   0.719097
H    9.754483   1.670102   0.747368
H    9.207955   2.160089   4.040971
H    9.412745  -5.083307   4.026950
H   11.471923  -2.332016   4.732044
H    6.058783  -3.927777   0.015666
H    4.436397  -3.088039   2.850576

