%chk=mol_4044.chk
# wB97XD/Def2SVP opt pop=full gfinput

C 5 H 7 N 1 O 1

1 2
C    1.724904   0.039930   0.089668
C    4.585042  -0.038229   0.011943
C    5.984479   1.826855   1.732917
O    7.594923  -0.174819   2.686435
C    5.886119  -2.074749   1.642947
C    7.239919  -4.024909   0.275409
N    8.264566  -5.606987  -0.850169
H    0.926930  -1.575446  -0.926967
H    1.020452   1.765514  -0.807971
H    1.007526  -0.008976   2.029906
H    5.278666   0.038418  -1.942771
H    4.880804   2.680085   3.260023
H    7.068483   3.286574   0.751922
H    4.699862  -2.842318   3.160945

