%chk=mol_4577.chk
# wB97XD/Def2SVP opt pop=full gfinput

C 5 H 9 N 1 O 1

1 2
C    5.316650  -0.633512  -3.479987
C    4.664657   0.119034  -0.780532
C    5.720938   2.707637   0.000000
O    4.687503   3.228994   2.471138
C    5.175412   5.732824   3.324350
C    8.449702   2.707637   0.000000
N   10.624796   2.707637   0.000000
H    4.388870  -2.418547  -3.961301
H    7.352622  -0.901154  -3.721816
H    4.680644   0.802302  -4.825094
H    5.333544  -1.349189   0.525042
H    2.600112   0.146586  -0.575214
H    4.992959   4.136837  -1.313492
H    4.111780   6.035067   5.070041
H    4.553352   7.123134   1.926217
H    7.183794   5.985330   3.743415

