%chk=mol_5189.chk
# wB97XD/Def2SVP opt pop=full gfinput

C 4 H 6 N 2 O 1

1 2
C    2.063033  -0.549702   0.337127
N    4.780005  -0.166277   0.212178
C    5.565413   2.090113  -0.175782
N    4.291927   4.330969  -0.521791
O    5.540167   6.481477   0.392742
C    8.296710   2.094478  -0.301166
C   10.565402   2.098938  -0.410770
H    1.671841  -2.573958   0.498963
H    1.113351   0.128331  -1.372338
H    1.251471   0.377397   1.999217
H    2.459384   4.264394   0.045335
H    6.856947   6.785780  -0.866836
H   12.576506   2.068286  -0.497017

