%chk=mol_3503.chk
# wB97XD/Def2SVP opt pop=full gfinput

C 5 H 6 O 2

1 2
O    1.961744   0.030954   0.459298
C    4.208874   0.021940   0.120924
C    6.503115  -1.893940   0.015666
C    7.983677  -1.547232   2.463882
C    8.028804   1.371204   2.543647
C    6.541759   1.895433   0.131997
O    7.564139   0.045164  -1.719329
H    6.203045  -3.722798  -0.870805
H    6.999470  -2.347701   4.096624
H    9.889617  -2.337950   2.349118
H    9.958800   2.104872   2.445098
H    7.090951   2.115095   4.229037
H    6.277651   3.780284  -0.641581

