%chk=mol_0766.chk
# wB97XD/Def2SVP opt freq pop=full gfinput

C 4 H 10 O 2

1 2
C    1.24313951  -0.37893987  -0.04209999
C    2.74848890  -0.31366986   0.17818993
C    3.33490896   1.03891957  -0.22021991
O    2.75986886   2.06900930   0.59029979
C    4.85741806   1.06902969  -0.04307998
O    5.34418774   2.36126900  -0.41475987
H    0.86459970  -1.36938953   0.23149991
H    0.99266958  -0.19868992  -1.09264958
H    0.71734971   0.36148986   0.56935984
H    3.22810888  -1.11164951  -0.39937985
H    2.94654894  -0.50700980   1.23925948
H    3.08262873   1.27780950  -1.25989962
H    3.38549876   2.81996894   0.55297977
H    5.35593796   0.31209990  -0.65555978
H    5.12961817   0.91521966   1.00575960
H    5.25174761   2.43908906  -1.38081944

