%chk=mol_3817.chk
# wB97XD/Def2SVP opt freq pop=full gfinput

C 5 H 9 N 1 O 1

1 2
C    1.84450936   0.17369993  -0.79408967
N    1.83177936  -0.02577999   0.64791977
C    0.53859979   0.05231998  -0.03939999
C   -0.33724988   1.23460960   0.20345992
C   -1.70124936   0.70907974  -0.21484992
O   -1.67883933  -0.69752973   0.07825997
C   -0.34210986  -1.15023959  -0.20066991
H    2.16552901   1.15224946  -1.13039947
H    2.19363928  -0.65841973  -1.39281952
H    2.06071925  -0.99033964   0.89518970
H   -0.34513986   1.48365951   1.27079952
H   -0.05850998   2.12775922  -0.36380985
H   -2.52242899   1.18993962   0.32424986
H   -1.86403930   0.83063972  -1.29179955
H   -0.31741989  -1.53028941  -1.22775948
H   -0.09760997  -1.96173930   0.49072984

