%chk=mol_4926.chk
# wB97XD/Def2SVP opt freq pop=full gfinput

C 5 H 11 N 1 O 1

1 2
C    1.33620942   3.49131870   1.28236949
C    2.51049900   2.56934905   1.02189958
O    3.62048864   3.35806894   0.59544981
N    4.70021820   2.50338912   0.34000987
C    5.78340769   3.17244887   0.08483997
C    5.87603760   4.67842817   0.06608998
C    7.03117752   2.40070915  -0.26137990
H    0.47115982   2.92858887   1.64288938
H    1.05531967   4.02304840   0.36776984
H    1.59955943   4.25121832   2.02467918
H    2.25332928   1.84206927   0.24326991
H    2.77757907   2.03418922   1.94046926
H    5.26377821   5.12243795   0.85440969
H    5.54250813   5.04426813  -0.90841967
H    6.91222715   4.98906803   0.22564991
H    6.83380747   1.32530951  -0.26597989
H    7.80677700   2.61885905   0.47795981
H    7.38118696   2.70501900  -1.25143957

