%chk=mol_3610.chk
# wB97XD/Def2SVP opt pop=full gfinput

C 7 H 14

1 2
C    5.390179  -1.926670  -0.691980
C    4.427326   0.527082   0.455122
C    6.410461   2.550658   0.378985
C    6.569557   4.328040  -1.840007
C    5.793352   5.339459   0.722820
C    3.094540   6.180274   1.070246
C    7.678826   6.917702   2.162055
H    3.924659  -3.383668  -0.612725
H    7.049416  -2.622732   0.328964
H    5.930792  -1.655211  -2.670183
H    3.885731   0.191618   2.426843
H    2.715914   1.099518  -0.560474
H    8.172745   1.886041   1.195535
H    5.151507   4.188143  -3.313276
H    8.434642   4.792648  -2.557083
H    1.798093   5.263076  -0.254357
H    2.931570   8.221423   0.767248
H    2.457929   5.760188   2.993496
H    9.622580   6.267107   1.867730
H    7.282589   6.834988   4.191866
H    7.577348   8.894639   1.557323

