%chk=mol_1712.chk
# wB97XD/Def2SVP opt pop=full gfinput

C 5 H 12 N 2

1 2
C    3.902719  -0.664843   2.889769
N    6.443871   0.388377   2.766691
C    6.888865   1.576750   0.305285
C    9.510708   2.740330   0.275598
C    9.885233   4.965425   2.019739
C   11.755759   1.043771  -0.259743
N   10.837561   2.790993  -2.177909
H    3.597245  -1.504827   4.753738
H    3.625648  -2.143554   1.470868
H    2.469211   0.803341   2.627683
H    7.723859  -1.031507   3.004419
H    5.492357   3.066723  -0.045542
H    6.698418   0.168696  -1.206004
H   11.712919   5.890616   1.721049
H    9.814085   4.356291   3.994862
H    8.406163   6.378242   1.719783
H   11.427608  -0.941688  -0.633172
H   13.564775   1.479089   0.593563
H   11.981337   4.340776  -2.311324

