%chk=mol_6977.chk
# wB97XD/Def2SVP opt pop=full gfinput

C 6 H 9 N 1

1 2
C    5.774285  -2.230085  -0.897941
C    4.627335   0.118675   0.295062
C    6.514226   2.218633   0.481805
N    6.955893   3.890436  -1.661277
C    5.645084   4.939328   0.538402
C    6.981367   6.699703   2.097029
C    8.099669   8.181550   3.405041
H    4.375566  -3.750842  -0.984585
H    7.395179  -2.903111   0.198289
H    6.428829  -1.841425  -2.821966
H    3.956217  -0.344346   2.198980
H    2.968514   0.699048  -0.803474
H    8.167189   1.706895   1.581115
H    5.703137   3.567142  -3.089475
H    3.646945   5.319069   0.272593
H    9.105721   9.493984   4.550404

