%chk=mol_5346.chk
# wB97XD/Def2SVP opt pop=full gfinput

C 5 H 13 N 1 O 1

1 2
C    2.401445   4.111874   0.939326
O    5.048781   4.175463   1.386209
C    6.398499   2.698000  -0.444445
C    9.271223   2.780146   0.122511
C    9.811307   1.768028   2.789444
C   10.707717   1.207308  -1.837759
N   10.176345   5.412100  -0.040667
H    1.475593   5.308921   2.345830
H    1.684445   2.182407   1.141376
H    1.961611   4.842480  -0.943597
H    6.015962   3.452114  -2.338139
H    5.715817   0.741264  -0.368761
H    8.901971   2.922499   4.251090
H   11.842479   1.743216   3.192579
H    9.110899  -0.170397   2.997824
H   10.383006   1.915351  -3.759440
H   10.099226  -0.771651  -1.790856
H   12.749623   1.241985  -1.492109
H    8.985610   6.494687   1.032376
H   11.912436   5.560103   0.777622

