%chk=mol_6464.chk
# wB97XD/Def2SVP opt freq pop=full gfinput

C 5 H 7 N 1 S 1

1 2
C    0.93701965   0.05576998  -0.00928000
C    2.42606926   0.05908998  -0.00245000
C    3.21555877   1.19573951   0.00686000
S    4.86035824   0.74170971   0.01183000
N    4.58533859  -0.88753968   0.00220000
C    3.27045870  -1.11234963  -0.00465000
C    2.81878901  -2.53224897  -0.01421000
H    0.53528982   1.07428968  -0.00304000
H    0.55211979  -0.46377981   0.87399966
H    0.56040984  -0.44982985  -0.90413970
H    2.91688871   2.23414898   0.01080000
H    1.72745931  -2.61407900  -0.00921000
H    3.19769859  -3.05911899   0.86780965
H    3.18873882  -3.04375887  -0.90902966

