%chk=mol_2495.chk
# wB97XD/Def2SVP opt freq pop=full gfinput

C 5 H 8 O 2

1 2
C    0.97716963  -0.01364999   0.32821989
C    2.43246913  -0.07915997  -0.11175996
C    2.85777903   1.21404958  -0.81512970
O    4.22619820   1.15072954  -1.24991953
C    4.51147795  -0.06728997  -1.81467938
C    3.73349857  -1.14956963  -1.71827936
O    2.57353926  -1.21445954  -0.98820966
H    0.79851967   0.83556968   0.99389964
H    0.69564974  -0.93343961   0.85148972
H    0.31143990   0.07056997  -0.53763980
H    3.07123876  -0.25687993   0.76402974
H    2.76689911   2.06977916  -0.13783994
H    2.23328900   1.41182947  -1.69546938
H    5.44979811  -0.04357998  -2.35212898
H    3.94431853  -2.09036922  -2.20867920

