%chk=mol_6023.chk
# wB97XD/Def2SVP opt pop=full gfinput

C 5 H 5 N 1 O 1

1 2
O    2.014656   0.030047   0.872600
C    4.256533  -0.054462   0.390720
C    6.264593   1.938991  -0.225803
N    7.983753  -0.167430  -0.832594
C    6.287724  -2.132008   0.203977
C    5.791765  -4.074212  -1.646084
C    5.391237  -5.706085  -3.171811
H    6.841773   3.065929   1.406334
H    5.798133   3.165556  -1.818465
H    8.302210  -0.364415  -2.726308
H    6.878320  -2.840428   2.056910
H    5.029922  -7.166012  -4.512761

