%chk=mol_5728.chk
# wB97XD/Def2SVP opt freq pop=full gfinput

C 4 H 7 N 1 O 2

1 2
N    1.41037953   0.49212983   0.55941981
C    2.50982904  -0.00941000  -0.31231990
C    2.21981907   0.37406987  -1.73089933
C    2.11978936  -0.49576980  -2.74669886
C    3.83906841   0.63992977   0.14609994
O    3.60993862   1.66217935   1.01810968
O    4.95664787   0.31624991  -0.22433992
H    1.42329943  -0.07206997   1.41571939
H    0.52846980   0.22660992   0.11018995
H    2.59315896  -1.09365952  -0.17942993
H    2.10419917   1.43614948  -1.94324923
H    2.24755931  -1.56473947  -2.60304904
H    1.92404938  -0.14848995  -3.75622869
H    2.62527895   1.72214937   1.10531950

