%chk=mol_4082.chk
# wB97XD/Def2SVP opt pop=full gfinput

C 4 H 5 N 1 O 2

1 2
C    1.740570  -0.148325   0.310236
C    4.240886  -0.061586  -0.060641
C    5.761869   2.311249  -0.233891
O    7.986001   1.975085   1.252605
N    9.458759  -0.095582   0.427040
C    8.162445  -2.074674  -0.189124
O    5.600714  -2.332073  -0.290149
H    0.620681   1.557456   0.508563
H    0.760520  -1.946494   0.429969
H    4.735956   3.943065   0.515971
H    6.296189   2.719297  -2.192706
H    9.075618  -3.861674  -0.732722

