%chk=mol_3077.chk
# wB97XD/Def2SVP opt pop=full gfinput

C 6 H 10 O 1

1 2
C    2.440695  -1.075632  -0.069769
C    5.264947  -0.572587  -0.059243
C    5.885930   2.230066   0.028781
O    4.243323   3.869271   0.210553
C    8.674750   2.922178  -0.005631
C    9.618649   3.181505   2.651739
C   11.454556   1.763266   3.662403
H    2.071461  -3.108543  -0.151102
H    1.533929  -0.187253  -1.703890
H    1.545550  -0.324012   1.637599
H    6.109560  -1.366839  -1.773281
H    6.124886  -1.482925   1.587653
H    8.889934   4.716908  -1.013574
H    9.719844   1.494962  -1.079619
H    8.732670   4.641470   3.802016
H   12.409265   0.293588   2.595255
H   12.054015   2.059556   5.603964

