%chk=mol_3873.chk
# wB97XD/Def2SVP opt freq pop=full gfinput

C 5 H 7 N 1 O 1

1 2
C    0.71887970  -1.22358954   0.51301980
O   -0.60391980  -1.56331944   0.04222998
C   -1.53133941  -0.56491977  -0.05548998
C   -1.26126945   0.74313974   0.01366000
C    0.08593997   1.25767958   0.19006993
N    1.05190957   0.95104963  -0.86487967
C    1.14202964   0.21375991   0.39619985
H    1.42944944  -1.86231923  -0.02302999
H    0.75771976  -1.51518941   1.56910944
H   -2.51720905  -0.96495968  -0.25081992
H   -2.06887937   1.45827949  -0.10721996
H    0.18903993   2.21247911   0.69109976
H    1.76332939   1.67990935  -0.91805965
H    1.99939919   0.44073981   1.01679957

