%chk=mol_2985.chk
# wB97XD/Def2SVP opt freq pop=full gfinput

C 5 H 8 O 2

1 2
C    0.98765963  -0.05320998  -0.03167999
C    2.51569891  -0.01354999   0.01988999
C    3.02541876  -0.67102975   1.30446947
C    3.04255891  -0.79580969  -1.16463959
O    3.36084867  -0.28249988  -2.23281932
C    2.95433879   1.43939948  -0.04732998
O    3.31103873   2.09160924   0.93163961
H    0.60995978   0.40500984  -0.95358962
H    0.54708982   0.49458981   0.80941969
H    0.61320978  -1.08271968  -0.00135000
H    2.64188910  -0.16222994   2.19651914
H    4.12072849  -0.64270973   1.35350955
H    2.72258902  -1.72274935   1.36432958
H    3.05840874  -1.89297926  -1.05080962
H    2.86497903   1.92619932  -1.03390956

