%chk=mol_5047.chk
# wB97XD/Def2SVP opt pop=full gfinput

C 5 H 11 N 1 O 1

1 2
C    2.692255   0.259516  -1.604472
N    5.392806   0.745289  -1.799284
C    6.573923   0.839549   0.713655
C    9.395605   1.499932   0.559113
C   11.116862  -0.121037  -1.114390
C   11.376019   2.251136  -2.728557
O    9.845889   3.720909  -1.003860
H    1.857053   0.240713  -3.497392
H    1.729024   1.721408  -0.500078
H    2.328785  -1.587994  -0.745837
H    5.675471   2.466300  -2.635091
H    6.365165  -0.992560   1.657762
H    5.626282   2.263835   1.883566
H   10.180295   1.796638   2.457003
H   10.226876  -1.728003  -2.058668
H   12.867579  -0.734537  -0.203694
H   13.292295   3.009275  -2.880491
H   10.511299   2.146162  -4.603240

