%chk=mol_5487.chk
# wB97XD/Def2SVP opt freq pop=full gfinput

C 5 H 11 N 1 O 1

1 2
N    0.67252976  -0.39742985  -0.02421999
C    2.08887911  -0.65232974  -0.25129992
C    2.63815904  -0.52000982  -1.64268935
C    2.97448897   0.51432979  -0.60032976
C    4.37421846   0.60848975  -0.06099998
C    4.41165829   1.23569953   1.32930946
O    3.91355848   0.32643989   2.30610919
H    0.48132983  -0.16287994   0.94897968
H    0.11817995  -1.22975945  -0.22749992
H    2.51635909  -1.44899940   0.35605988
H    1.96176934  -0.23303990  -2.43892908
H    3.40614891  -1.22106957  -1.95019937
H    2.51924896   1.49161947  -0.71935970
H    4.96071815   1.23068953  -0.74881971
H    4.84026814  -0.38485986  -0.03230999
H    3.82466841   2.15708923   1.37905943
H    5.44429779   1.47121942   1.60228944
H    2.96929884   0.19949992   2.11306906

