%chk=mol_2792.chk
# wB97XD/Def2SVP opt freq pop=full gfinput

C 6 H 10 O 1

1 2
C    0.90618968   0.04455998   0.12960996
C    2.44015908   0.00962000   0.06271998
C    2.98105884  -0.65149975   1.33840954
C    3.01312900  -0.69936973  -1.15304947
C    2.33966923  -1.29787946  -2.14556909
C    2.94126892   1.45208943  -0.02275999
O    4.02060843   1.84207928   0.41677985
H    0.47175983   0.52753979  -0.75375974
H    0.56539977   0.61585981   1.00150967
H    0.48390982  -0.96376967   0.20723991
H    2.66532898  -0.10058997   2.23225904
H    4.07737827  -0.67945975   1.35020947
H    2.62243891  -1.68296945   1.43405950
H    4.10415840  -0.71133977  -1.21171963
H    1.25665951  -1.34504950  -2.18022919
H    2.87613893  -1.77193940  -2.96347880
H    2.29699922   2.14840913  -0.58872980

