%chk=mol_3686.chk
# wB97XD/Def2SVP opt freq pop=full gfinput

C 6 H 12 O 1

1 2
O    2.48724914   0.52295977   2.57137895
C    3.53234863   1.06069958   1.76871943
C    2.91175890   1.79212928   0.58733982
C    3.94597840   2.34520912  -0.39033985
C    4.82523823   3.39334869   0.22625992
C    6.23338747   3.05988884   0.64894974
C    5.99745798   3.93175864  -0.55182981
H    2.90815902   0.09093997   3.33426881
H    4.16932869   0.23677991   1.43130946
H    4.12401819   1.73925936   2.39092898
H    2.27009916   2.60048914   0.95938963
H    2.24275923   1.10600960   0.05283998
H    3.41445875   2.79798913  -1.23706949
H    4.54535818   1.52225935  -0.80027968
H    4.26491880   4.11295843   0.81335968
H    6.61271763   2.05904913   0.47501981
H    6.61808729   3.52785873   1.54790950
H    6.22035789   4.98950815  -0.46307981
H    6.20593739   3.51790857  -1.53210938

