%chk=mol_4223.chk
# wB97XD/Def2SVP opt freq pop=full gfinput

C 5 H 7 N 1 O 1

1 2
C    0.93935966   0.02015999   0.16261995
C    2.45162916   0.05451998  -0.03858998
O    2.69846892   1.18345964  -0.89619964
N    3.92700839   1.20525956  -1.59416938
C    4.36128855   0.04744998  -1.98307920
C    3.79860878  -1.26219952  -1.63457930
C    2.91477895  -1.24243951  -0.63686979
H    0.59406978   0.94942963   0.62627977
H    0.62726980  -0.82028967   0.79146969
H    0.42164981  -0.05600998  -0.80176973
H    2.94862890   0.22452992   0.92467964
H    5.26258802   0.01495999  -2.60906887
H    4.17989826  -2.15934920  -2.10011911
H    2.52317905  -2.16755915  -0.23463991

