%chk=mol_6788.chk
# wB97XD/Def2SVP opt freq pop=full gfinput

C 6 H 11 N 1

1 2
C    0.93428969   0.03087999  -0.00981000
C    2.46631908   0.01757999   0.02180999
C    3.02940893   0.12153996  -1.39934945
N    2.92422891  -1.23762953   0.67110974
C    3.41048861  -0.87540966   2.01557922
C    3.52275872   0.60492975   2.01233935
C    2.99488902   1.10916960   0.89692962
H    0.50508982  -0.04892998   0.99609959
H    0.54339981  -0.80343968  -0.60298979
H    0.55775976   0.95946962  -0.45353982
H    4.12612820   0.12260995  -1.40371943
H    2.69949889   1.04628956  -1.88733935
H    2.69543886  -0.71782970  -2.02114916
H    3.72171855  -1.59953940   0.15027994
H    4.37868834  -1.34597945   2.21389914
H    2.69599915  -1.20504963   2.77758884
H    3.94560862   1.18362951   2.82020879
H    2.92377901   2.16120911   0.66519976

