%chk=mol_1049.chk
# wB97XD/Def2SVP opt freq pop=full gfinput

C 4 H 9 N 1 O 1

1 2
C    1.70247936  -0.46443981   1.16371965
N    2.93470907  -0.36233988   0.39357987
C    3.37659883   1.03427958   0.30397987
C    4.64564800   1.09351957  -0.53479975
C    5.95220804   0.90491962   0.19061993
O    4.60335827   1.22918963  -1.75929940
H    1.38650942  -1.51084948   1.20748949
H    0.89279968   0.11352995   0.70697969
H    1.85178936  -0.12170996   2.19241929
H    2.76290894  -0.70395976  -0.55583978
H    3.58820868   1.45301938   1.29371953
H    2.62118912   1.66466928  -0.17833993
H    6.05067778   1.66284943   0.97156966
H    6.78226757   1.01807964  -0.51206982
H    5.98981762  -0.09533996   0.62817973

