%chk=mol_4542.chk
# wB97XD/Def2SVP opt freq pop=full gfinput

C 4 H 7 N 1 O 2

1 2
C    0.98408967  -0.52184981   0.20005992
C    2.48995900  -0.45622984   0.03298999
C    2.92891908   0.97225964  -0.12776995
N    3.71381855   1.52213943   0.73843974
O    3.96836853   2.85005879   0.35131988
C    4.83918810   3.43754864   1.22895956
O    5.37168789   2.95856881   2.21816921
H    0.65791976  -1.55952942   0.31678990
H    0.47357982  -0.09787997  -0.67059970
H    0.66225976   0.04211999   1.08122957
H    2.79140902  -1.00522959  -0.86509967
H    2.98916888  -0.90456969   0.89826965
H    2.55480909   1.51811934  -1.01130962
H    5.00350809   4.47264814   0.89174968

