%chk=mol_5088.chk
# wB97XD/Def2SVP opt freq pop=full gfinput

C 5 H 13 N 1 O 1

1 2
C    1.00681961   1.67720938   1.39184952
N    2.44128895   1.93869936   1.32556951
C    3.01496887   1.39288950   0.08944996
C    4.51827860   1.69076931  -0.00357000
C    4.89865828   3.17845869  -0.00874000
C    4.30035877   3.95816851  -1.17078960
O    4.50931787   3.80290866   1.21231949
H    0.60657972   2.08841920   2.32304907
H    0.79410970   0.60380977   1.37777948
H    0.47922984   2.15996933   0.56367975
H    2.89120889   1.48403943   2.12478924
H    2.50201917   1.80940926  -0.78460968
H    2.87305880   0.30512989   0.06411997
H    4.90930796   1.21894944  -0.91272968
H    5.01734829   1.20658958   0.84602970
H    5.98983812   3.25469875  -0.06685998
H    3.20918894   4.02180862  -1.09756958
H    4.56726837   3.50777864  -2.13192916
H    4.66697836   4.99156809  -1.15924954
H    3.59157872   3.49997878   1.39080954

