%chk=mol_3473.chk
# wB97XD/Def2SVP opt freq pop=full gfinput

C 5 H 8 O 2

1 2
C    1.81017935   2.96788907   0.69076973
O    3.21079874   2.74095893   0.53539979
C    3.53477859   1.45388949   0.25002989
O    2.73831892   0.53337979   0.12802994
C    5.00963783   1.27783954   0.10624996
C    5.46143818  -0.13484994  -0.11445996
C    5.87201786   2.30706906   0.16486993
H    1.66897941   4.00367832   1.01018965
H    1.39110947   2.31091905   1.45891941
H    1.29669952   2.82548881  -0.26447991
H    5.16051817  -0.76906973   0.72584975
H    6.55019760  -0.20589992  -0.20824993
H    5.02353811  -0.53982979  -1.03263962
H    5.54569817   3.33115864   0.32072988
H    6.94064760   2.15197921   0.05501998

