%chk=mol_4599.chk
# wB97XD/Def2SVP opt freq pop=full gfinput

C 4 H 7 N 1 O 2

1 2
C    0.01885999   0.43531984  -0.05100998
C    1.45198941   0.05763998  -0.22230992
C    2.46861911   0.91782969  -0.09931996
O    3.79430842   0.50657982  -0.25230992
C    4.68817806   1.44249952  -0.68671972
N    4.40371847   2.66156888  -1.00181961
O    5.57651806   3.31054878  -1.41057944
H   -0.43881983  -0.18341993   0.72682971
H   -0.52480984   0.27068990  -0.98632967
H   -0.10082997   1.48502946   0.23495992
H    1.66241944  -0.98053968  -0.46504983
H    2.35308909   1.96480930   0.15013994
H    5.69583797   0.99833959  -0.73812973
H    5.25176811   4.19985867  -1.64805937

