%chk=mol_0076.chk
# wB97XD/Def2SVP opt pop=full gfinput

C 4 H 6 O 1

1 2
C    1.893128  -0.120527   0.056673
O    4.575197  -0.015534   0.054594
C    5.468886   2.529493   0.000000
C    8.197651   2.529493   0.000000
C   10.446728   2.529493   0.000000
H    1.322789  -2.103945   0.099607
H    1.132532   0.748388  -1.656761
H    1.132513   0.821388   1.732085
H    4.751584   3.541989   1.658065
H    4.751584   3.469896  -1.699979
H   12.459909   2.508385   0.000454

