%chk=mol_3936.chk
# wB97XD/Def2SVP opt freq pop=full gfinput

C 4 H 6 N 2 O 1

1 2
C    0.99582964   0.06686997   0.02612999
C    2.47779918  -0.01261000   0.00414000
N    3.23383880   1.09722960  -0.03275999
N    4.47238827   0.62862980  -0.12383996
O    5.51926804   1.50865948  -0.25690991
C    4.57472849  -0.71930975  -0.08228997
C    3.28122878  -1.17759955  -0.00633000
H    0.64444977   1.10409951   0.04555998
H    0.59858972  -0.44222984   0.90996969
H    0.58032978  -0.41695985  -0.86489964
H    6.00492811   1.26912951   0.54430979
H    5.52303791  -1.22774959  -0.13552995
H    2.95291901  -2.20686936   0.02309999

