%chk=mol_7104.chk
# wB97XD/Def2SVP opt pop=full gfinput

C 6 H 7 N 1

1 2
C    1.957189  -0.014267   0.461093
C    4.760390  -0.192166   0.009203
C    5.795431  -2.346945  -0.846182
C    6.366336   1.989428   0.502856
C    5.594080   4.250032   1.356370
C    7.318720   6.265897   1.778818
N    8.718950   7.915477   2.126055
H    1.116450   1.460361  -0.723330
H    1.561159   0.415419   2.446742
H    0.986853  -1.787794   0.012737
H    4.648519  -4.005123  -1.231705
H    7.809823  -2.538715  -1.191964
H    8.378214   1.723128   0.132734
H    3.627462   4.644229   1.762245

