%chk=mol_6371.chk
# wB97XD/Def2SVP opt pop=full gfinput

C 4 H 2 N 2 O 1

1 2
O    1.769124   0.167071  -0.000000
N    4.414646  -0.056106  -0.000000
C    5.569042   2.109653  -0.000000
C    4.157794   4.434261  -0.000000
C    3.001376   6.389844  -0.000000
C    8.285995   1.949347  -0.000000
N   10.483237   1.867579  -0.000000
H    1.212014  -1.592075  -0.000000
H    1.962424   8.114692   0.000000

