%chk=mol_5800.chk
# wB97XD/Def2SVP opt freq pop=full gfinput

C 4 H 6 N 2 O 1

1 2
N    1.69746935   1.52999938  -2.00395918
C    2.56084919   1.98022926  -1.13731956
C    3.04287887   3.41126871  -1.40419948
O    3.86926842   3.98283863  -0.71189976
N    2.95991898   1.17049956  -0.08593997
C    4.35077858   1.21897948   0.37661988
C    3.24578881   1.76639938   1.22168958
H    1.46698952   0.57381976  -1.70326936
H    2.57179904   3.87782860  -2.28459907
H    5.01329851   1.89259923  -0.14545995
H    4.74875832   0.24306992   0.61607975
H    2.88119888   1.16867959   2.04687929
H    3.11416864   2.83544898   1.31066954

