%chk=mol_1608.chk
# wB97XD/Def2SVP opt pop=full gfinput

C 4 H 7 N 3

1 2
C    0.420445   1.205740   1.499517
C    2.109123   0.137685  -0.502592
N    4.433014  -0.435979   0.004271
N    5.715212  -1.373396  -2.007891
C    8.323885  -2.198054  -1.496455
C    9.557423  -3.207224  -3.780265
N   10.537453  -3.960507  -5.596386
H   -1.209160  -0.041366   1.733880
H   -0.249293   3.061262   0.887623
H    1.422094   1.386039   3.296079
H    1.266381  -0.131393  -2.395209
H    5.739911  -0.123890  -3.485902
H    8.303608  -3.659133  -0.029064
H    9.422231  -0.598136  -0.772652

