%chk=mol_6827.chk
# wB97XD/Def2SVP opt freq pop=full gfinput

C 5 H 10 N 2

1 2
C    0.96019959   0.08630997  -0.16524994
C    2.43271923   0.05382998   0.05140998
N    3.27117872  -0.81228971  -0.76070976
C    3.38240862   0.64099973  -0.97135967
C    4.68857813   1.32422960  -0.58883977
C    5.95470810   1.14298964  -1.39156950
N    5.21112823   2.39231920  -1.44918942
H    0.54271984   1.01348960   0.24009991
H    0.48393983  -0.75381970   0.35050985
H    0.69307971   0.03028999  -1.22604954
H    2.69698906   0.12151995   1.10003960
H    2.74988890  -1.23279953  -1.53149951
H    2.93873906   0.99363965  -1.90156925
H    4.82748795   1.48826945   0.47805980
H    5.91247797   0.51413983  -2.27211905
H    6.90166712   1.15377951  -0.86780965
H    5.66550779   3.11253881  -0.88584965

