%chk=mol_3949.chk
# wB97XD/Def2SVP opt freq pop=full gfinput

C 5 H 9 N 1 O 1

1 2
C    1.07448959  -0.17747994   0.08627997
C    2.55670905  -0.04217999  -0.00301000
C    3.34721875  -0.66926974  -1.13388968
C    2.66700888  -1.33828938  -2.26417923
O    2.53210902  -2.55630898  -2.27844906
N    3.13043880   0.78210968  -1.06255960
C    4.31718874   1.52063942  -0.63975972
H    0.66883975   0.59108979   0.75186968
H    0.81186974  -1.15581965   0.50028980
H    0.58026981  -0.07275997  -0.88493967
H    3.01532888  -0.02481999   0.97963965
H    4.33412838  -1.05495965  -0.90264970
H    2.30425906  -0.69985974  -3.08577895
H    4.01539850   2.47242904  -0.19108993
H    4.93715858   1.74697936  -1.51319945
H    4.94405794   0.99100965   0.08781997

