%chk=mol_5915.chk
# wB97XD/Def2SVP opt freq pop=full gfinput

C 6 H 13 N 1

1 2
C    0.97151965   0.06500997   0.11542995
C    2.49346924   0.02231999  -0.04150998
C    2.99451876  -1.33785951  -0.54648978
C    2.70043898  -1.55783951  -2.02867913
C    3.19484878  -0.37431985  -2.85246897
C    2.66351891   0.94655967  -2.30292892
N    2.98381901   1.12552953  -0.88302964
H    0.64807975   1.03816962   0.50337982
H    0.64157975  -0.69865972   0.82884973
H    0.44192985  -0.11386996  -0.82547969
H    2.91174889   0.17692994   0.96047962
H    2.55258918  -2.15053916   0.04202998
H    4.08046865  -1.39626944  -0.39306983
H    3.18431878  -2.47965908  -2.37181926
H    1.62274945  -1.69006932  -2.18057919
H    4.29174852  -0.35956988  -2.84627891
H    2.88335872  -0.49390981  -3.89562845
H    3.10793900   1.77534938  -2.86557913
H    1.58158934   1.01978958  -2.46122909
H    3.99961853   1.17227960  -0.78951973

