%chk=mol_5544.chk
# wB97XD/Def2SVP opt freq pop=full gfinput

C 4 H 4 N 2 O 1

1 2
N    1.07756960   0.01594999  -0.19662993
C    2.44002914  -0.02102999  -0.10494996
C    3.13555884  -1.17008960  -0.05075998
C    4.51352835  -0.71875972   0.02438999
O    5.53205824  -1.36288941   0.09234996
C    4.41436815   0.76780969   0.01351999
N    3.18370867   1.14104950  -0.05298998
H    0.60370982  -0.77426970   0.22690991
H    0.72615975   0.91574961   0.12175995
H    2.80274916  -2.18848920  -0.07710997
H    5.32615757   1.37564945   0.06491998

