%chk=mol_6206.chk
# wB97XD/Def2SVP opt pop=full gfinput

C 5 H 7 N 1 O 1

1 2
O    6.120785  -2.728670   1.206930
C    5.454128  -0.925323  -0.657303
C    5.638206   1.621763   0.537835
C    7.105540   3.510053  -0.317209
C    7.308554   6.060352   0.921865
C    6.558635   8.072192  -0.843441
N    5.982533   9.671051  -2.232239
H    6.030059  -4.377097   0.402738
H    3.513795  -1.284220  -1.274583
H    6.728691  -1.128167  -2.273340
H    4.487608   1.890010   2.220598
H    8.269933   3.210267  -1.987708
H    9.269069   6.352314   1.521078
H    6.134372   6.155386   2.625302

