%chk=mol_0026.chk
# wB97XD/Def2SVP opt pop=full gfinput

C 4 H 8

1 2
C    0.637272   1.932774  -0.246571
C    1.882300  -0.624781   0.399110
C   -0.623326  -1.882715  -0.399375
C   -1.928825   0.643433   0.246704
H    1.110535   3.505121   1.005164
H    0.913040   2.521972  -2.212340
H    2.328010  -0.852342   2.409155
H    3.540610  -1.127694  -0.723482
H   -0.707022  -2.375953  -2.409004
H   -1.210521  -3.512472   0.723595
H   -3.474545   1.203888  -1.005731
H   -2.567514   0.774826   2.212567

