%chk=mol_4279.chk
# wB97XD/Def2SVP opt freq pop=full gfinput

C 5 H 5 N 1 O 1

1 2
C    2.88908887  -1.10847962   0.37130988
C    2.28859901   0.06406997   0.13110995
C    3.00922894   1.28841960   0.06414998
N    2.46725893   2.47716904  -0.17024994
C    3.50996876   3.36662865  -0.14805993
C    4.67661810   2.69868898   0.10125996
O    4.38182831   1.38058949   0.23895991
H    2.30856919  -2.02423930   0.41571987
H    3.96080852  -1.18899953   0.52838981
H    1.21592963   0.11390996  -0.02195999
H    3.36151862   4.42375803  -0.31099990
H    5.71408796   2.97765875   0.20513992

