%chk=mol_4042.chk
# wB97XD/Def2SVP opt freq pop=full gfinput

C 5 H 11 N 1 O 1

1 2
C    1.06758964   0.09172997  -0.11760996
C    2.55619884   0.04477998  -0.06938998
C    3.39105868  -0.67472976  -1.09892964
O    2.72307897  -1.26783955  -2.22339916
C    3.45295882   0.84539968  -1.00237966
C    2.87074900   1.67861938  -2.11892939
N    4.65970802   1.45070946  -0.39472985
H    0.69975978   0.85271966   0.57782978
H    0.65610975  -0.87329972   0.19450994
H    0.66189975   0.32410988  -1.10418963
H    2.87879896  -0.07574997   0.96156967
H    4.25643826  -1.22124946  -0.73302972
H    1.84493935  -0.89413965  -2.39418912
H    2.00583935   1.22197950  -2.60635924
H    3.62674856   1.84729922  -2.89425898
H    2.55498910   2.65491891  -1.73467934
H    5.06034803   0.84848964   0.32277986
H    4.42167854   2.32605910   0.07037997

