%chk=mol_0264.chk
# wB97XD/Def2SVP opt pop=full gfinput

C 5 H 11 N 1

1 2
C    1.875818  -0.111796   0.140860
C    4.737071  -0.006538   0.061832
C    6.011238   2.038599   1.718819
C    7.937606  -0.054386   2.348589
N    5.924537  -1.918318   1.757389
C    6.950545  -4.018087   0.294948
H    1.175221  -1.800285  -0.830535
H    1.067374   1.539031  -0.810315
H    1.150333  -0.141257   2.080607
H    5.450991   0.006746  -1.889745
H    4.895544   2.669843   3.346818
H    6.757056   3.686553   0.722121
H    9.586089  -0.064213   1.090788
H    8.593794  -0.083110   4.308405
H    5.407206  -5.201962  -0.415286
H    8.129432  -5.210958   1.508266
H    8.097855  -3.425998  -1.326607

