%chk=mol_5677.chk
# wB97XD/Def2SVP opt freq pop=full gfinput

C 4 H 9 N 1 O 2

1 2
N    2.30140924  -0.48180982  -1.38465953
C    2.35660911   0.10702997  -0.04543998
C    3.49241853   1.12689960   0.09162997
O    3.25293875   2.34040904  -0.67793971
C    3.01225901   3.09212875   0.53388983
C    3.51134872   1.93374932   1.40793943
O    4.79569864   2.10619926   2.05264926
H    1.56158936  -1.18083954  -1.42209947
H    3.17260885  -0.96767968  -1.59058940
H    2.49834895  -0.69597977   0.68619972
H    1.39119947   0.57856977   0.16916995
H    4.46947861   0.69790971  -0.16474994
H    3.61531854   4.00358868   0.56844980
H    1.95364928   3.34457874   0.64701974
H    2.77204895   1.60620940   2.14653921
H    5.38758802   2.42962909   1.34877944

