%chk=mol_6948.chk
# wB97XD/Def2SVP opt freq pop=full gfinput

C 6 H 13 N 1

1 2
C    0.67065978   0.49896979   0.65418977
C    1.86976933   0.21754992  -0.23741990
C    3.05771899   1.12929964   0.03694998
C    3.94520855   0.71699971   1.19475949
N    3.35650873   1.15048957   2.45157909
C    3.75619864   1.71349931  -1.18243957
C    2.93292904   2.60595894  -0.30478990
H   -0.16279994  -0.15598994   0.37982985
H    0.33271986   1.53537941   0.55171978
H    0.89775968   0.32027987   1.70901930
H    1.54812932   0.32313991  -1.28035951
H    2.17486906  -0.82861972  -0.11839996
H    4.94307804   1.16033947   1.10108960
H    4.07778835  -0.37036988   1.20246947
H    3.26626873   2.16426921   2.44406891
H    3.99370837   0.92589968   3.21288872
H    3.37236881   1.48432946  -2.16965914
H    4.83303833   1.84195924  -1.16246951
H    3.45464873   3.33095884   0.30936989
H    1.98909914   2.96951890  -0.69609976

