%chk=mol_6493.chk
# wB97XD/Def2SVP opt freq pop=full gfinput

C 4 H 6 N 2 S 1

1 2
C    0.87716973  -0.01856999  -0.00382000
C    2.35987926   0.05430998  -0.00435000
C    3.22708869   1.12585962  -0.00380000
N    2.85487890   2.42158914  -0.00174000
C    4.57908821   0.67018974  -0.00647000
N    4.77547836  -0.64608979  -0.00783000
S    3.29240870  -1.38856947  -0.00733000
H    0.42391983   0.97717965   0.00858000
H    0.51570982  -0.55725980   0.87854970
H    0.51464981  -0.53606981  -0.89832962
H    3.52492881   3.18471885   0.01613999
H    1.88560927   2.72133899   0.01890999
H    5.46025753   1.29693949  -0.00734000

