%chk=mol_4761.chk
# wB97XD/Def2SVP opt pop=full gfinput

C 5 H 8 N 2

1 2
C    3.678862  -0.245438   0.057296
C    1.904201  -2.403788   0.739318
N   -0.096093  -1.160330  -0.638161
C   -2.071556  -0.413510   0.862490
N   -2.247187   1.883244   1.685749
C    0.014494   3.125418   0.595509
C    1.369031   1.130075  -0.999722
H    5.087710  -0.740130  -1.373358
H    4.625350   0.664106   1.650921
H    2.386781  -4.237976  -0.085850
H    1.542470  -2.623752   2.768241
H   -3.450338  -1.909644   1.311791
H    1.218288   3.840226   2.118137
H   -0.585815   4.723484  -0.575119
H    1.506905   1.619174  -3.007839

