%chk=mol_6177.chk
# wB97XD/Def2SVP opt pop=full gfinput

C 4 H 5 N 1 O 2

1 2
O    1.975784   0.017896   0.257570
C    4.261729   0.074739  -0.037039
C    5.639812   2.537033  -0.001020
N    8.055656   2.678233  -0.320611
O    8.667664   5.280008  -0.107129
C    6.363747   6.684377  -0.379873
C    4.302907   4.933111   0.508714
H    5.460704  -1.597971  -0.343949
H    6.142177   7.184890  -2.375934
H    6.463034   8.417351   0.740092
H    2.547615   5.146102  -0.552178
H    3.955235   5.095722   2.539622

