%chk=mol_6319.chk
# wB97XD/Def2SVP opt pop=full gfinput

C 4 H 6 N 2 O 1

1 2
O    2.152795   0.074493  -0.389114
N    4.756554  -0.100571  -0.618829
C    6.068119  -2.188190   0.147285
C    8.398453  -1.543094   0.907295
C    8.759183   1.299432   0.772161
C    6.101359   2.065490  -0.071318
N    5.278478   4.364625  -0.173023
H    1.873342   1.887402  -0.655640
H    5.179928  -4.025268   0.112363
H    9.807433  -2.841128   1.610330
H    9.194274   2.112978   2.618461
H   10.159754   1.842842  -0.642923
H    6.685624   5.587334   0.361750

