%chk=mol_6034.chk
# wB97XD/Def2SVP opt freq pop=full gfinput

C 4 H 7 N 1 O 2

1 2
O    0.91349965  -0.02122999   0.36263987
C    2.32093906   0.02378999   0.04332998
C    3.17356873   1.04601967   0.82342970
N    4.13618851  -0.02634999   1.00328958
C    3.20795870  -1.08095968   0.66096973
C    5.22974825  -0.05363998   1.81387937
O    5.77665806   0.92479962   2.30175924
H    0.55097979  -0.73730975  -0.18678993
H    2.45693922   0.11470996  -1.04262960
H    2.74394894   1.40343952   1.76412940
H    3.55277872   1.88349938   0.23263991
H    3.60797882  -1.80694938  -0.05024998
H    2.79049897  -1.59023941   1.53436935
H    5.59287786  -1.07941961   1.99176919

