%chk=mol_5156.chk
# wB97XD/Def2SVP opt pop=full gfinput

C 4 H 9 N 1 O 2

1 2
C    6.599491  -2.346889  -2.197260
N    6.133030  -0.957354   0.137874
C    6.532311   1.776626  -0.183870
C    9.328728   2.477733  -0.090990
O   11.009336   0.983413   0.534358
C    9.950995   5.226529  -0.679583
O   12.595006   5.660372  -0.802907
H    6.246395  -4.358710  -1.873739
H    8.551483  -2.143705  -2.847912
H    5.318370  -1.729118  -3.699328
H    7.386845  -1.589770   1.472267
H    5.605117   2.758320   1.384054
H    5.697373   2.452203  -1.952730
H    9.158897   6.420212   0.809559
H    9.126602   5.742311  -2.501903
H   13.395399   4.260633   0.104918

