%chk=mol_6381.chk
# wB97XD/Def2SVP opt freq pop=full gfinput

C 7 H 16

1 2
C    1.61752939   0.64394975   1.50742948
C    2.97643900   1.32791948   1.44632947
C    3.71712875   0.97356963   0.15220994
C    5.12091827   1.61346948  -0.01811999
C    6.07701778   1.16299963   1.09889960
C    5.69804764   1.15094960  -1.37074947
C    5.03645849   3.14885879  -0.02387999
H    1.10210967   0.90827966   2.43608904
H    1.72470939  -0.44491985   1.47661948
H    0.98526961   0.95186967   0.66865975
H    3.56025863   1.01933968   2.31961918
H    2.82384896   2.40984917   1.51676941
H    3.08755898   1.26606953  -0.69896972
H    3.81548858  -0.11894996   0.09601996
H    5.76656771   1.54337943   2.07727933
H    7.09386730   1.53006935   0.91815966
H    6.12472773   0.07026997   1.16088963
H    5.05571842   1.46227944  -2.20217919
H    5.78996801   0.05969997  -1.40935946
H    6.69384718   1.57429945  -1.54415941
H    4.32376814   3.50217867  -0.77713972
H    6.01074743   3.59567857  -0.25295991
H    4.72276831   3.54195881   0.94844961

