%chk=mol_5768.chk
# wB97XD/Def2SVP opt pop=full gfinput

C 4 H 9 N 1 O 2

1 2
N    1.428954  -0.952951   0.199820
C    4.176711  -0.744930   0.201010
C    4.975290   1.994493  -0.193413
C    7.846634   2.255898  -0.166617
O    8.557265   4.854782  -0.497376
C    8.718043   5.657727  -2.924427
O    8.315910   4.408372  -4.821504
H    0.925229  -2.806016   0.354305
H    0.733573  -0.350601  -1.494244
H    4.955618  -1.942015  -1.297599
H    4.902120  -1.445206   2.008533
H    4.169492   3.209360   1.282255
H    4.223273   2.710812  -1.988181
H    8.740910   1.058492  -1.604378
H    8.596516   1.657951   1.666209
H    9.276194   7.660723  -2.936975

