%chk=mol_6854.chk
# wB97XD/Def2SVP opt freq pop=full gfinput

C 6 H 11 N 1

1 2
C    0.99579966   0.06796998   0.04997998
C    2.51861906  -0.00791000   0.03482999
N    3.10309887   1.09586966   0.82596970
C    4.45774794   0.62669975   1.15114963
C    4.30951834  -0.85549968   1.46717954
C    3.11507893  -1.24894953   0.64769977
C    2.66254902  -2.50600910   0.54603982
H    0.55884975  -0.70118970  -0.59562975
H    0.65183979   1.03973961  -0.32118988
H    0.59137976  -0.07006997   1.05896962
H    2.87496901   0.08713996  -0.99882966
H    2.57037902   1.17558956   1.69238925
H    5.11605835   0.77841973   0.28693989
H    4.88118839   1.18323958   1.99312925
H    5.20912790  -1.41231954   1.18817961
H    4.09856844  -1.00180960   2.53247905
H    1.78576922  -2.75110888  -0.04431998
H    3.16444874  -3.32542872   1.05157959

