%chk=mol_6137.chk
# wB97XD/Def2SVP opt pop=full gfinput

C 4 H 4 N 2 O 1

1 2
O    3.645433  -1.480449  -1.453407
C    3.811294   0.216128   0.120470
C    5.869130   2.139340   0.122662
C    5.029582   4.690867   0.925815
N    5.391427   6.410782  -0.767399
N    6.518497   5.232368  -2.917510
C    6.780488   2.851824  -2.429942
H    2.518079   0.257362   1.756179
H    7.417137   1.492808   1.324112
H    4.217547   5.045191   2.802558
H    7.617977   1.466333  -3.729507

