%chk=mol_6927.chk
# wB97XD/Def2SVP opt freq pop=full gfinput

C 6 H 13 N 1

1 2
C    2.26627922  -0.47753981  -1.45735955
C    2.43918920   0.03809999  -0.03782999
C    3.28214860   1.30610955  -0.02724999
C    2.62287903   2.60644889  -0.56450975
C    3.21889877   3.37061882   0.63333976
N    4.52672863   3.91306853   0.25958991
C    3.40886879   2.01755929   1.34736943
H    1.67765939  -1.39988947  -1.45815945
H    3.23631883  -0.68965977  -1.91852939
H    1.75067937   0.25682989  -2.08430910
H    2.92846870  -0.73395973   0.56696981
H    1.45383954   0.22103992   0.40618983
H    4.26882839   1.12444949  -0.47762984
H    1.52552950   2.58492923  -0.54717976
H    2.93769884   2.91795897  -1.56553936
H    2.55653906   4.08805847   1.12325954
H    5.14464808   3.26349878  -0.22479992
H    5.05974817   4.26993847   1.05070961
H    4.35320854   1.85811937   1.87716937
H    2.59012890   1.78884935   2.04138923

