%chk=mol_4453.chk
# wB97XD/Def2SVP opt pop=full gfinput

C 4 H 9 N 1 O 2

1 2
C    5.769334  -2.202967   0.367646
C    7.321819  -0.723689  -1.542829
C    7.248951   2.107971  -1.001441
C    8.795636   3.606524  -2.884497
O    9.999505   2.684224  -4.641999
N    8.753778   6.169276  -2.443813
O    9.980154   7.666978  -4.288299
H    5.839783  -4.224350  -0.063892
H    3.788485  -1.607892   0.333877
H    6.497672  -1.930015   2.284414
H    6.597639  -1.096438  -3.448353
H    9.279802  -1.400949  -1.504260
H    7.992426   2.486237   0.894955
H    5.294049   2.790162  -1.079468
H    7.371557   7.026380  -1.430183
H   10.671850   6.386046  -5.442959

