%chk=mol_5216.chk
# wB97XD/Def2SVP opt freq pop=full gfinput

C 4 H 9 N 1 O 2

1 2
C    1.32399952   2.85540891   2.42299914
N    2.09766936   1.79438925   1.83841932
C    2.37813902   1.75018930   0.49128982
O    2.06784916   2.63576913  -0.30110988
C    3.12771893   0.48789981   0.05851998
O    3.31502867  -0.42754984   1.14105964
C    4.00614834  -1.59498942   0.71364969
H    1.38508940   2.77552915   3.51067877
H    0.28457990   2.75652909   2.09904933
H    1.71472931   3.82269859   2.09490919
H    2.30204916   0.94874966   2.36392903
H    4.10284853   0.79686970  -0.33339986
H    2.53886914   0.00462000  -0.72873974
H    4.98800802  -1.33391941   0.30754989
H    3.41829872  -2.13298917  -0.03581999
H    4.14858818  -2.24644923   1.57965946

