%chk=mol_2213.chk
# wB97XD/Def2SVP opt pop=full gfinput

C 6 H 8 O 1

1 2
C    1.143587  -0.090310   0.333669
O    3.486885   1.138106  -0.240222
C    1.246463   2.664079  -0.390021
C    1.127637   4.805989   1.475593
C    0.513854   7.071979  -0.133150
C    0.247195   6.440243  -2.575376
C    0.640239   3.651650  -2.986410
H    0.789282  -0.579806   2.287703
H    0.426927  -1.437741  -1.028162
H    2.926789   5.082154   2.458118
H   -0.371634   4.494808   2.867187
H    0.334028   8.964842   0.612215
H   -0.178693   7.750012  -4.083302
H   -1.091940   2.790143  -3.721570
H    2.185884   3.327562  -4.322465

