%chk=mol_2058.chk
# wB97XD/Def2SVP opt pop=full gfinput

C 6 H 7 N 1

1 2
N    1.919263  -0.030047   0.085510
C    4.667624   0.000000   0.000000
C    5.578509   2.572238   0.000000
C    6.329260   4.692322   0.000000
C    7.240146   7.264561   0.000000
C    5.228948   9.174469  -0.183114
C    3.606504  10.754394  -0.325468
H    1.301398  -1.835604  -0.143222
H    1.241248   0.974456  -1.410435
H    5.310773  -0.991539  -1.698939
H    5.405959  -1.032679   1.633271
H    8.558589   7.530747  -1.576410
H    8.334448   7.610513   1.725433
H    2.163528  12.155663  -0.445465

