%chk=mol_2621.chk
# wB97XD/Def2SVP opt freq pop=full gfinput

C 7 H 12

1 2
C    0.80631971   0.57192981  -0.97168964
C    2.29314923   0.70051974  -0.89799964
C    2.93760896   1.45190942   0.00903000
C    4.43368816   1.58700943   0.07831997
C    4.88392830   3.01999903  -0.09311996
C    4.64752817   3.64523864  -1.44100940
C    5.49642801   3.69526863   0.89420968
H    0.51463979  -0.47229981  -0.82420969
H    0.45471984   0.89181966  -1.95694935
H    0.30000988   1.17959952  -0.21513993
H    2.86021900   0.14382994  -1.64088941
H    2.37097931   2.00543928   0.75386971
H    4.92321825   0.96727967  -0.68303972
H    4.76238823   1.19344950   1.04832959
H    5.10320807   3.03582907  -2.22807932
H    5.07981777   4.64939833  -1.50813937
H    3.57566881   3.73394847  -1.64415932
H    5.68122768   3.24178886   1.86403930
H    5.82978773   4.71964836   0.76070976

