%chk=mol_2100.chk
# wB97XD/Def2SVP opt freq pop=full gfinput

C 5 H 10 N 2

1 2
N    2.90729904  -0.80630970  -1.19734955
C    2.32963896  -0.10157996  -0.04672998
C    2.81785893   1.35719955   0.05442998
N    4.28200865   1.44080949  -0.03851999
C    4.72761869   2.82737875   0.05897998
C    6.19211769   2.87934899  -0.03611999
C    7.39036751   2.92482901  -0.10929996
H    2.54482913  -1.75913942  -1.21103954
H    3.90950847  -0.90223962  -1.02508962
H    2.59860897  -0.64369977   0.86740965
H    1.23752952  -0.11231995  -0.12705995
H    2.47202897   1.77538943   1.00691962
H    2.36162901   1.93968928  -0.75599974
H    4.55070829   1.08469951  -0.95694965
H    4.41417789   3.26035881   1.01580966
H    4.28867865   3.43075871  -0.74411970
H    8.45357704   2.95946908  -0.16840994

