%chk=mol_4139.chk
# wB97XD/Def2SVP opt pop=full gfinput

C 4 H 4 N 2 O 1

1 2
C    2.009006   0.037133   0.009770
C    4.824471  -0.085983   0.005820
N    6.103796  -2.185015  -0.001209
C    8.556566  -1.366159  -0.001002
O   10.508842  -2.572805  -0.006331
C    8.507377   1.453162   0.007483
N    6.181332   2.161733   0.011584
H    1.203623  -1.864744  -0.008201
H    1.364533   1.067242  -1.661126
H    1.368332   1.033813   1.702284
H   10.269585   2.542645   0.009316

