%chk=mol_0082.chk
# wB97XD/Def2SVP opt freq pop=full gfinput

C 4 H 4 O 1

1 2
O    1.29526949  -0.34082985   0.73060971
C    2.24475908  -0.05723998   0.00423000
C    3.00338888   1.23937953   0.09685996
C    4.45009851   1.01487958  -0.01346999
C    5.63568783   0.83995968  -0.10326996
H    2.52782917  -0.72306973  -0.82953972
H    2.76116896   1.72496927   1.04745960
H    2.65808916   1.88420928  -0.71762973
H    6.68816710   0.68945974  -0.17837994

