%chk=mol_3107.chk
# wB97XD/Def2SVP opt freq pop=full gfinput

C 5 H 12 O 2

1 2
C    1.38521957  -0.50093985   1.77022934
C    1.82601929  -0.87699968   0.36034986
C    2.29271913  -2.32863903   0.32355988
O    0.69694972  -0.68549979  -0.49765983
C    1.04349959  -0.60927975  -1.88648927
C   -0.24279991  -0.40347987  -2.68125916
O   -0.87275964   0.80984968  -2.27499914
H    1.07407951   0.54990983   1.80361927
H    2.19280910  -0.64501977   2.49482894
H    0.51882982  -1.09512949   2.08510923
H    2.64210892  -0.20897992   0.06111998
H    1.44895935  -3.01594877   0.45752981
H    3.03899884  -2.52902889   1.09984970
H    2.74703884  -2.57047915  -0.64246976
H    1.53240943  -1.53164935  -2.21240926
H    1.71581936   0.24288991  -2.03504920
H   -0.94820964  -1.21941960  -2.49859905
H   -0.03452999  -0.34424987  -3.75311875
H   -0.88535970   0.77379972  -1.29875946

