%chk=mol_4411.chk
# wB97XD/Def2SVP opt freq pop=full gfinput

C 5 H 9 N 1 O 1

1 2
C    0.94700962  -0.03961999   0.04314998
C    2.47906899  -0.02759999  -0.03108999
C    2.93215895  -0.81721973  -1.26395965
C    3.02722883   1.41704953  -0.03587999
O    2.48618913   2.13530922   1.08304954
C    4.50699806   1.44698942   0.01108000
N    5.66509771   1.45470941   0.06985997
H    0.58913976   0.42825982   0.96586961
H    0.56547976  -1.06634963   0.02961999
H    0.50607979   0.49626982  -0.80427974
H    2.84834886  -0.54610986   0.86425966
H    2.60767913  -0.32741988  -2.18843937
H    2.51135921  -1.82857931  -1.25284958
H    4.02129841  -0.91977966  -1.29698944
H    2.68501902   1.93853939  -0.93705964
H    2.88734889   1.76666927   1.89034927

