%chk=mol_6300.chk
# wB97XD/Def2SVP opt freq pop=full gfinput

C 4 H 6 N 2 O 1

1 2
O    2.60332918   2.29708910   2.31286907
C    2.10900927   1.73171926   1.34882939
N    2.81344891   1.23791945   0.28152990
C    4.25867844   1.35687947   0.20255993
C    4.73431826   2.75516891  -0.18982993
C    4.38617849   3.05212879  -1.58444941
N    4.10872841   3.26481891  -2.69093895
H    1.02329957   1.57191944   1.23993957
H    2.30113912   0.84848964  -0.50222981
H    4.60609818   0.60372978  -0.51351976
H    4.67015791   1.10084963   1.18584955
H    5.82302761   2.80619884  -0.07461997
H    4.30274868   3.51407862   0.47167984

