%chk=mol_2244.chk
# wB97XD/Def2SVP opt freq pop=full gfinput

C 5 H 8 O 2

1 2
C    1.37184954  -0.26276991  -0.31544986
C    2.78886914   0.05855998  -0.00387000
C    3.72462869  -0.97020966   0.56376982
C    3.91812849  -0.46720982  -0.84059972
O    4.84877825   0.61792976  -1.02910960
C    4.26835823   1.78831935  -0.42801982
O    3.06862879   1.44248950   0.28477991
H    0.92707962   0.51867980  -0.94067967
H    0.78846973  -0.33359987   0.60827976
H    1.27785945  -1.21434951  -0.84935969
H    3.36070871  -1.98262930   0.69061977
H    4.42988825  -0.65813971   1.32450950
H    3.70837855  -1.13224959  -1.66791940
H    4.98682833   2.22759914   0.26900989
H    4.02133846   2.50662899  -1.21487951

