%chk=mol_4426.chk
# wB97XD/Def2SVP opt freq pop=full gfinput

C 5 H 9 N 1 O 1

1 2
C    0.14068994  -0.21376991  -0.24242991
C    1.54185951  -0.42745984   0.23079991
C    2.54404902   0.44306982   0.03333999
C    3.94724846   0.24528991   0.52241981
O    4.82610846   0.28417990  -0.60380977
N    6.14618731   0.12499996  -0.14838995
C    6.93527746   0.12864995  -1.16780949
H   -0.14416994  -1.00864959  -0.93839967
H    0.01726999   0.74760973  -0.75066972
H   -0.54617977  -0.23944990   0.60896975
H    1.73062932  -1.35595942   0.76614970
H    2.35989904   1.37098944  -0.50449979
H    4.06223869  -0.71401978   1.03959966
H    4.20695829   1.05583966   1.21288955
H    8.02047729   0.01453999  -1.02216959
H    6.57771730   0.24190991  -2.20499921

