%chk=mol_6711.chk
# wB97XD/Def2SVP opt pop=full gfinput

C 5 H 12 N 2

1 2
C    1.910891  -0.032806   0.017820
C    4.781366  -0.033448   0.094732
C    5.862592   2.153796   1.614412
C    8.518432   1.255043   2.259564
N   10.317924   1.923533   0.251201
C    8.187824  -1.623898   2.524769
N    5.739741  -2.287136   1.397112
H    1.202697  -1.637863  -1.080262
H    1.206685   1.702908  -0.861054
H    1.096570  -0.155846   1.917845
H    5.521515   0.015515  -1.842218
H    4.787546   2.444606   3.365413
H    5.834529   3.937188   0.563856
H    9.170179   2.106761   4.029066
H    9.812497   1.039708  -1.384999
H   12.056907   1.226262   0.702619
H    9.732468  -2.681786   1.640906
H    8.150691  -2.148845   4.527274
H    5.928732  -3.749141   0.158491

