%chk=mol_2476.chk
# wB97XD/Def2SVP opt pop=full gfinput

C 7 H 12

1 2
C    1.333901   1.307010   1.555604
C    4.140069   1.114598   1.303439
C    5.651301   3.094937   0.820746
C    8.363285   2.850293   0.587459
C   10.034673   4.710312   0.106240
C    9.420833   7.457464  -0.293115
C   12.817616   4.118034  -0.074228
H    0.750505   0.658003   3.429777
H    0.417478   0.113119   0.138347
H    0.654129   3.245075   1.303703
H    4.935133  -0.765906   1.535969
H    4.810600   4.952765   0.596681
H    9.087107   0.936756   0.835391
H    7.409182   7.891043  -0.169244
H   10.064889   8.060797  -2.166722
H   10.387881   8.612200   1.126749
H   13.218654   2.109747   0.224027
H   13.869928   5.185616   1.350776
H   13.537242   4.629205  -1.945586

