%chk=mol_1951.chk
# wB97XD/Def2SVP opt pop=full gfinput

C 5 H 8 N 2

1 2
N    1.936988  -0.190106  -0.258023
C    4.718608  -0.061643  -0.080691
C    6.293109  -1.398737  -2.052450
N    4.986364  -2.807056  -4.076064
C    6.183505   1.454220  -2.006965
C    8.368256   2.834722  -1.178925
C   10.193920   3.994352  -0.499644
H    1.152431   1.332748   0.627465
H    1.288415  -1.740532   0.685082
H    5.449158  -0.092597   1.841500
H    8.042335  -2.271923  -1.418145
H    3.224893  -2.027676  -4.281874
H    4.638918  -4.607171  -3.486016
H    5.107174   2.357755  -3.501908
H   11.819708   5.025670   0.091160

