%chk=mol_2272.chk
# wB97XD/Def2SVP opt freq pop=full gfinput

C 5 H 8 O 2

1 2
C    0.79571968  -0.05084998  -0.14562994
C    2.23695922  -0.40051985  -0.00336000
C    3.04538870  -0.83459973  -1.19563949
C    3.28685880   0.51618981  -0.57490981
O    4.49919796   0.63431978   0.19436994
C    4.59913826   1.72005928   1.00406957
O    3.77637863   2.61338902   1.13345957
H    0.51698983   0.69999975   0.59978980
H    0.17614993  -0.93785965   0.01548999
H    0.56467974   0.35068986  -1.13719964
H    2.44322896  -0.87283969   0.95028961
H    2.56647897  -0.86373967  -2.16755915
H    3.79367876  -1.60508943  -1.04889965
H    2.96258879   1.38133943  -1.14727962
H    5.55897760   1.67654932   1.54082942

