%chk=mol_0715.chk
# wB97XD/Def2SVP opt pop=full gfinput

C 6 H 8

1 2
C    2.957875  -1.003237   2.094421
C    4.407805  -0.205564   0.180469
C    5.830089   2.254727   0.177332
C    8.687034   1.838344   0.012321
C   10.053721   4.257628  -0.045977
C   11.177277   6.231882  -0.094392
H    1.962934  -2.794395   1.982209
H    2.724966   0.101667   3.807571
H    4.568583  -1.376099  -1.503088
H    5.379257   3.360935   1.873418
H    5.184445   3.379057  -1.441370
H    9.148504   0.749598  -1.690095
H    9.332923   0.721611   1.634689
H   12.173786   7.979652  -0.136835

