%chk=mol_7027.chk
# wB97XD/Def2SVP opt freq pop=full gfinput

C 6 H 9 N 1

1 2
C    3.36157870  -0.90108961  -2.49471903
C    3.49427867  -0.48653981  -1.37647951
C    3.65460849   0.02129999  -0.00535000
C    4.39314842   1.34825957  -0.00266000
C    3.62126875   2.59546900  -0.48560980
N    4.25067854   3.36220884   0.61616981
C    4.44340801   2.08976912   1.34959960
H    3.24235892  -1.27103949  -3.48796868
H    4.21444845  -0.71075976   0.58800983
H    2.66919899   0.12258995   0.46429983
H    5.39175797   1.26793945  -0.45889983
H    2.53003907   2.53369904  -0.39821985
H    3.87289858   2.94799900  -1.49009955
H    5.12994814   3.80196857   0.34089988
H    5.38853836   2.01426935   1.89517927
H    3.62216854   1.86227930   2.03959918

