%chk=mol_4659.chk
# wB97XD/Def2SVP opt freq pop=full gfinput

C 5 H 9 N 1 O 1

1 2
C    3.25111866  -0.14659995   1.45387948
C    2.61688900   0.19699992   0.11608995
N    2.87784886   1.54516935  -0.31828991
C    2.45123887   2.78570890   0.33298987
C    3.66353846   3.46192861  -0.33833990
C    4.10790873   2.02286911  -0.65788972
O    5.12724829   1.46651936  -0.98673964
H    3.03407884  -1.18562949   1.72015941
H    2.86606884   0.49556983   2.25235915
H    4.33882856  -0.02404999   1.42175949
H    1.53065944   0.06942997   0.16656993
H    3.00562882  -0.48131984  -0.65173972
H    2.48592901   2.74466896   1.42508948
H    1.47369945   3.13577890  -0.00649000
H    3.44196868   4.05930853  -1.22615945
H    4.32935858   4.00326872   0.33625990

