%chk=mol_2952.chk
# wB97XD/Def2SVP opt freq pop=full gfinput

C 6 H 12 O 1

1 2
C    2.90850902  -0.91863966  -0.59047973
C    2.63319921  -0.00466000   0.59718972
C    3.32717872   1.36638939   0.48863980
C    2.86702895   2.27587914   1.64403939
O    3.31349874   3.61681867   1.45768940
C    4.83671856   1.21568954   0.50748980
C    5.64416790   1.63446939  -0.47621980
H    2.34155917  -1.84942925  -0.48590982
H    3.96810842  -1.18225956  -0.66052973
H    2.60674906  -0.44278982  -1.52895939
H    2.93897891  -0.51419979   1.51948941
H    1.54813945   0.14468995   0.66600978
H    3.02666879   1.84186935  -0.45458984
H    3.23383880   1.92023921   2.61362910
H    1.77353930   2.30850911   1.69200945
H    4.27948809   3.58344865   1.34083951
H    5.27683830   0.73196971   1.37793946
H    5.25514841   2.11790919  -1.36766946
H    6.71904755   1.49488950  -0.41219983

