%chk=mol_2065.chk
# wB97XD/Def2SVP opt freq pop=full gfinput

C 7 H 12

1 2
C    1.26822948   0.49496982   1.55463934
C    2.67454886   0.55137974   1.05308962
C    3.09163880   1.39715946   0.09858996
C    4.49827814   1.45978951  -0.42864984
C    5.17281818   2.77718902  -0.17492995
C    6.14000797   3.34371877  -1.18339956
C    4.80322790   3.99994850  -0.97626966
H    0.85772967  -0.50737983   1.39930940
H    0.61766976   1.21204948   1.04358959
H    1.24464953   0.71568972   2.62595892
H    3.37708879  -0.14545995   1.50501943
H    2.38499904   2.09102917  -0.35254985
H    4.46359825   1.24992955  -1.50507939
H    5.11251783   0.66763973   0.01759999
H    5.40189791   2.91680884   0.87643963
H    6.30078793   2.80963898  -2.11313915
H    7.01947737   3.85656857  -0.81128967
H    4.77736807   4.95201826  -0.45839983
H    4.06163836   3.90270853  -1.76072931

