%chk=mol_1418.chk
# wB97XD/Def2SVP opt freq pop=full gfinput

C 5 H 12 N 2

1 2
C    1.11111963   0.06317998  -0.09517997
C    2.59944892  -0.17131993   0.00442000
C    3.02973890  -1.60103941  -0.19334993
N    2.53788900  -2.44059920   0.88934970
C    3.42979884   0.87080967   0.21902992
C    4.91852808   0.87011969   0.34783986
N    5.48808765   1.70109940  -0.70136976
H    0.85256970   1.12591958  -0.02750999
H    0.58132976  -0.45457980   0.71106976
H    0.73254973  -0.30461988  -1.05490959
H    4.11485863  -1.70858932  -0.25861990
H    2.62937903  -1.96843922  -1.14525950
H    2.94061875  -2.11412930   1.76609933
H    2.87604904  -3.39090872   0.75480974
H    2.98898888   1.86275935   0.33368987
H    5.35563803  -0.12937996   0.29923990
H    5.18781805   1.28958952   1.32334960
H    5.26593781   1.28750956  -1.60539937
H    6.50293732   1.68701935  -0.62419981

