%chk=mol_2876.chk
# wB97XD/Def2SVP opt freq pop=full gfinput

C 7 H 10

1 2
C    0.80926967   0.03661998   0.07057997
C    2.30298901  -0.15809993   0.03638998
C    2.74200892  -1.58942950   0.17690994
C    3.12879896   0.89567965  -0.12469996
C    4.63074827   0.90462965  -0.15326993
C    5.10089827   1.17001951  -1.52038944
C    5.48985767   1.38486958  -2.63487911
H    0.52408981   1.08921957  -0.02905999
H    0.40181983  -0.32921988   1.01878965
H    0.33568987  -0.51488978  -0.74822968
H    2.23830914  -2.21186924  -0.57058978
H    2.48116899  -1.96670926   1.17104959
H    3.81555843  -1.73124933   0.03584999
H    2.68502903   1.88604927  -0.23023991
H    5.06134844  -0.02872999   0.21852991
H    4.98599815   1.69252932   0.52116984
H    5.83162785   1.57393944  -3.62720871

