%chk=mol_4155.chk
# wB97XD/Def2SVP opt freq pop=full gfinput

C 4 H 8 N 2 O 1

1 2
C    1.08455968  -0.00132000   0.12279996
C    2.56626892   0.03492999  -0.07698997
N    3.18661880   1.14950955  -0.33263987
N    4.53325844   1.09083962  -0.48544982
C    5.24666786   0.02429999   0.20523992
C    4.54502869  -1.26959956  -0.16869995
O    3.13409877  -1.19087958   0.09404997
H    0.71291971  -1.02939963   0.09494997
H    0.59423983   0.56806976  -0.67157978
H    0.84048969   0.44239986   1.09149957
H    4.95563793   2.00223923  -0.30021989
H    6.29728746  -0.00105000  -0.09801996
H    5.19760799   0.19174993   1.28701949
H    4.94669819  -2.09849930   0.42276984
H    4.68076801  -1.51708949  -1.22801960

