%chk=mol_4471.chk
# wB97XD/Def2SVP opt pop=full gfinput

C 6 H 9 N 1

1 2
C   -1.980924  -0.061964   2.092683
C   -1.162257   1.919093   0.086153
C    1.713812   2.435196   0.006179
C    3.098678  -0.059243  -0.055312
C    1.753723  -2.213701  -0.068540
C   -1.055809  -1.958059   0.046355
N   -1.910551  -0.030519  -1.868637
H   -0.980598  -0.041687   3.901245
H   -4.019806  -0.125194   2.461652
H   -2.289082   3.653200   0.041309
H    2.194822   3.545655  -1.673749
H    2.285832   3.512472   1.678322
H    5.145668  -0.072036  -0.143033
H    2.622845  -4.064574  -0.153521
H   -2.047178  -3.769210  -0.035565
H   -3.809216  -0.090820  -2.184996

