%chk=mol_3248.chk
# wB97XD/Def2SVP opt freq pop=full gfinput

C 5 H 10 O 2

1 2
C    1.36286950  -0.35705987  -0.03983998
C    2.86759901  -0.13808995   0.07864997
O    3.50766873  -0.86742967  -0.97472960
C    3.30045891   1.33302951  -0.01088000
C    2.52539921   2.25492907   0.92791963
C    4.78883791   1.39807951   0.29207990
O    5.29436827   2.13081908   1.13712955
H    0.82180965   0.05973998   0.81436968
H    1.13737965  -1.42789948  -0.09621996
H    0.97239965   0.09497996  -0.95847964
H    3.21672869  -0.57666981   1.02074957
H    2.99269891  -0.74846971  -1.79255939
H    3.18780875   1.69270945  -1.04158962
H    2.58416915   1.90577924   1.96478927
H    1.47043943   2.31801915   0.64414972
H    2.92929888   3.27323890   0.89930969
H    5.43041801   0.76368970  -0.34457988

