%chk=mol_7148.chk
# wB97XD/Def2SVP opt freq pop=full gfinput

C 6 H 7 N 1

1 2
C    0.99999964   0.00000000   0.00000000
C    2.44399905   0.00000000   0.00000000
C    3.63415861   0.00000000   0.00000000
C    5.07815790   0.00000000   0.00000000
C    5.61875820  -0.76296967  -1.20704961
C    5.56017780   1.36116946   0.00000000
N    5.94438744   2.44615912   0.00000000
H    0.60601974   1.02087963   0.01165000
H    0.60593975  -0.52052981   0.87823963
H    0.60601974  -0.50029981  -0.88995969
H    5.43646812  -0.50567979   0.90495962
H    5.29691839  -0.30912989  -2.15299916
H    5.26939774  -1.80223930  -1.20432949
H    6.71506739  -0.77737969  -1.20462954

