%chk=mol_5003.chk
# wB97XD/Def2SVP opt pop=full gfinput

C 4 H 6 N 2 O 1

1 2
C    1.851384   0.077781   0.098984
N    4.502669   0.064232  -0.514100
N    6.015433   2.093892   0.296838
C    8.439026   1.160122   0.408634
C    8.589958  -1.333977   0.036113
C    5.952562  -2.138565  -0.414965
O    5.265873  -4.328323  -0.572020
H    1.069358   1.962197  -0.216941
H    1.604888  -0.484658   2.072255
H    0.878931  -1.290267  -1.104715
H    5.867260   3.664840  -0.818384
H    9.986787   2.450956   0.743229
H   10.194921  -2.569763   0.035886

