%chk=mol_6316.chk
# wB97XD/Def2SVP opt pop=full gfinput

C 4 H 7 N 1 O 2

1 2
O    4.468654  -1.909795  -2.183257
C    4.024172   0.419387  -1.222256
O    2.434345   1.843485  -2.106308
C    5.560576   1.011060   1.110252
C    8.287148   0.248669   0.903327
C    9.545971  -1.161728   3.031007
N    8.913442  -2.440241   0.659968
H    5.813194  -2.787044  -1.230609
H    4.628903   0.091935   2.716122
H    5.478354   3.055479   1.432318
H    9.392808   1.543509  -0.237444
H    8.441086  -1.709900   4.665092
H   11.532016  -0.820651   3.393646
H   10.532691  -2.693219  -0.379608

