%chk=mol_5071.chk
# wB97XD/Def2SVP opt freq pop=full gfinput

C 5 H 8 N 2

1 2
C    1.45651948   0.11894996   0.52486980
C    2.72977901  -0.09890996  -0.23260991
C    3.44260859   1.08835959  -0.83175969
C    4.04239845   0.36752984   0.34424987
C    4.87028790  -0.83193970   0.17400993
N    4.24922800  -1.81372941  -0.39809984
N    2.97848892  -1.44600940  -0.79311967
H    1.40242958   1.12627959   0.95193964
H    1.36961949  -0.59851980   1.34756958
H    0.59481978  -0.01210999  -0.13754995
H    3.03539896   2.07881927  -0.66573977
H    3.90541840   0.96476966  -1.80494940
H    4.04244852   0.84475970   1.31411946
H    5.90483761  -0.87516963   0.54272979
H    2.29861927  -2.15218902  -0.50477982

