%chk=mol_6133.chk
# wB97XD/Def2SVP opt freq pop=full gfinput

C 4 H 6 N 2 O 1

1 2
O    3.22651863  -0.74445975  -0.77603966
C    2.21608925   0.04842998  -0.16521993
C    2.76083875   1.41033947  -0.01604999
C    2.21673918   2.57761908   0.47390980
N    3.12232876   3.60609865   0.41087985
C    4.20746851   3.08070874  -0.11054996
N    4.03719854   1.75645936  -0.38493985
H    2.84500909  -1.63325942  -0.87905967
H    1.96693921  -0.38308987   0.80875969
H    1.32912958   0.04852998  -0.80556971
H    1.22136962   2.73470902   0.86927968
H    5.13332844   3.60265851  -0.31004989
H    4.71165800   1.12031960  -0.78986973

