%chk=mol_1850.chk
# wB97XD/Def2SVP opt pop=full gfinput

C 5 H 10 N 2

1 2
C    2.115700   1.261317  -1.645592
N    4.219494   0.862603  -0.472035
N    5.801837   2.880018  -0.536607
C    8.370938   2.397911   0.371577
C    9.883060   4.771389   0.052459
C   10.218468   6.599812   2.215950
C   12.414442   5.025764   1.339060
H    0.681889  -0.243699  -1.716060
H    1.654266   3.047996  -2.619444
H    5.079905   4.360448   0.477288
H    9.239325   0.887812  -0.741812
H    8.325624   1.796789   2.351235
H    9.752007   5.524614  -1.851497
H    9.389577   6.144917   4.033828
H   10.244546   8.603432   1.785791
H   13.918872   5.960215   0.307534
H   13.055267   3.501719   2.550507

