%chk=mol_4091.chk
# wB97XD/Def2SVP opt freq pop=full gfinput

C 4 H 8 N 2 O 1

1 2
C    0.90017968  -0.06748998  -0.46033984
C    2.15860915   0.57200980   0.01272999
N    3.40264869  -0.19071993   0.03945998
C    3.26729870   0.90257967  -0.95490962
C    4.10157871   2.11570930  -0.73626977
N    4.97569799   2.05272913   0.30423987
O    3.99420857   3.09540892  -1.45953941
H    0.16939995   0.70091975  -0.73121971
H    0.46690983  -0.68233973   0.33495986
H    1.06097960  -0.70570976  -1.33575940
H    1.99105930   1.23783946   0.85233968
H    3.29558873  -1.09275961  -0.42926985
H    3.17207885   0.59276980  -1.98927927
H    4.97176790   1.23039949   0.89720964
H    5.54217815   2.85613871   0.53593981

