%chk=mol_0885.chk
# wB97XD/Def2SVP opt pop=full gfinput

C 4 H 8 O 2

1 2
O    5.179475   0.382254  -3.282964
C    4.227639  -0.107903  -0.813149
C    5.594647   1.549556   1.104602
C    8.275810   0.717567   1.462913
C    9.535029   0.854156   4.012550
O    8.572989  -1.480695   3.021748
H    4.383106  -0.834012  -4.408258
H    4.476157  -2.117495  -0.388981
H    2.206954   0.332176  -0.815757
H    4.577106   1.481923   2.906512
H    5.605174   3.517139   0.459581
H    9.422590   0.875945  -0.221268
H    8.527616   1.697031   5.580267
H   11.568090   1.080319   4.079578

