%chk=mol_4191.chk
# wB97XD/Def2SVP opt freq pop=full gfinput

C 5 H 7 N 1 O 1

1 2
C    0.95498967  -0.10548996  -0.00426000
C    2.41743922   0.08859996  -0.00484000
C    3.24763894   1.18696952  -0.00423000
N    2.88266897   2.47696900  -0.00226000
C    4.57159853   0.70414972  -0.00668000
C    4.47167826  -0.66814977  -0.00835000
O    3.16857886  -1.05274963  -0.00712000
H    0.42421985   0.85104972   0.00834000
H    0.64584976  -0.67606974   0.87693971
H    0.64259976  -0.65477973  -0.89772964
H    3.55589867   3.23584890   0.01878999
H    1.91318929   2.77492905   0.02059999
H    5.48921776   1.27286959  -0.00753000
H    5.19426823  -1.47169948  -0.01058000

