%chk=mol_1718.chk
# wB97XD/Def2SVP opt pop=full gfinput

C 6 H 13 N 1

1 2
C    2.065301  -0.034847   0.453874
N    4.776623   0.137837   0.008882
C    5.638697   2.763233   0.172230
C    8.462553   2.942077  -0.450681
C    9.405205   5.610880  -0.232965
C   11.446147   6.549129  -1.984231
C    8.793671   7.536700  -2.240667
H    1.475271  -2.014259   0.350582
H    0.995697   1.021680  -0.968069
H    1.567811   0.667206   2.335210
H    5.176867  -0.561154  -1.741817
H    5.307333   3.500151   2.081004
H    4.571739   3.951153  -1.150182
H    8.804008   2.208353  -2.359852
H    9.550261   1.753118   0.853816
H    9.460555   6.248323   1.715097
H   12.145288   5.300512  -3.450319
H   12.867485   7.808386  -1.214659
H    8.423435   9.458836  -1.638336
H    7.706284   6.947408  -3.873315

