%chk=mol_6852.chk
# wB97XD/Def2SVP opt pop=full gfinput

C 6 H 11 N 1

1 2
C    1.841349   0.110398  -0.048301
C    4.716700  -0.000397   0.130334
N    5.482738  -2.390031   1.378914
C    6.499978  -1.688262   3.886052
C    6.839769   1.084457   3.816869
C    5.816463   2.052091   1.727380
C    5.737133   4.754683   0.969845
H    1.115127  -1.476122  -1.160500
H    1.230420   1.862344  -0.975061
H    0.948113   0.042330   1.817935
H    5.532778   0.056635  -1.775435
H    6.954079  -3.114042   0.362638
H    8.288358  -2.662038   4.238902
H    5.151677  -2.225322   5.365859
H    7.738391   2.158729   5.304272
H    5.775136   4.941955  -1.095588
H    7.370008   5.791047   1.713358
H    4.007901   5.653399   1.667022

