%chk=mol_4201.chk
# wB97XD/Def2SVP opt freq pop=full gfinput

C 4 H 4 N 2 O 1

1 2
C    1.12992954  -0.01458999   0.08080997
C    2.45204902  -0.00881000  -0.11186996
O    3.16666865  -1.13526964  -0.46303982
C    4.39770842  -0.55369985  -0.53585982
N    4.56053829   0.69915974  -0.29262990
C    3.32656884   1.16606963   0.00827000
N    3.11503887   2.38482928   0.31573987
H    0.58103979   0.88010967   0.35038987
H    0.56368983  -0.93328965  -0.03310999
H    5.18641806  -1.26605952  -0.81606972
H    2.12594914   2.53900909   0.51236981

