%chk=mol_3330.chk
# wB97XD/Def2SVP opt pop=full gfinput

C 5 H 10 O 2

1 2
C    3.658907  -0.537589  -2.692595
O    4.194039   0.310652  -0.201766
C    5.629608   2.577775  -0.154183
C    4.140711   4.903915  -0.889815
C    5.646653   6.991873   0.353171
O    6.758813   5.948196   2.592988
C    6.406682   3.257661   2.530400
H    2.646599  -2.334530  -2.560579
H    5.409776  -0.846635  -3.748952
H    2.453923   0.815455  -3.687479
H    7.326317   2.390749  -1.333447
H    2.224491   4.810714  -0.103708
H    3.958315   5.160540  -2.932760
H    7.185211   7.635250  -0.872770
H    4.477612   8.622215   0.850641
H    8.159384   2.315784   3.094993
H    4.946321   2.753463   3.910165

