%chk=mol_6023.chk
# wB97XD/Def2SVP opt freq pop=full gfinput

C 5 H 5 N 1 O 1

1 2
O    1.06610954   0.01589999   0.46175984
C    2.25245929  -0.02881999   0.20675991
C    3.31507874   1.02606964  -0.11948995
N    4.22481823  -0.08859996  -0.44058985
C    3.32731867  -1.12820959   0.10793996
C    3.06486869  -2.15597916  -0.87106967
C    2.85291886  -3.01952887  -1.67844939
H    3.62050867   1.62241936   0.74419969
H    3.06823897   1.67513943  -0.96228963
H    4.39333868  -0.19283992  -1.44269943
H    3.63984871  -1.50308943   1.08846962
H    2.66171908  -3.79208875  -2.38804913

