%chk=mol_4569.chk
# wB97XD/Def2SVP opt pop=full gfinput

C 5 H 7 N 1 O 1

1 2
C    1.645573   0.281248  -0.083148
C    4.481712   0.060244  -0.125024
C    5.501201  -2.592723  -0.271950
O    4.828836  -3.655146  -2.640401
C    5.931888   2.150489   0.000000
C    8.588843   2.150489   0.000000
N   10.763937   2.150489   0.000000
H    1.013592   2.238343   0.162838
H    0.861488  -0.824998   1.482207
H    0.831839  -0.416382  -1.854369
H    4.727509  -3.768095   1.247087
H    7.559604  -2.677553  -0.115651
H    3.085073  -4.213617  -2.520385
H    5.052391   4.000531   0.105050

