%chk=mol_1386.chk
# wB97XD/Def2SVP opt freq pop=full gfinput

C 6 H 9 N 1

1 2
C    0.87592971   0.15111995  -0.04436998
C    2.37766910   0.02833999  -0.07912997
C    2.92033887  -1.37618947  -0.15789995
N    2.51251912  -2.04185939  -1.39005947
C    3.13901877   1.13798952   0.00000000
C    4.54501867   1.13798952   0.00000000
C    5.73517752   1.13798952   0.00000000
H    0.54715979   1.18065965   0.13674995
H    0.46263981  -0.46872982   0.75902975
H    0.43695983  -0.17005993  -0.99457961
H    2.56355906  -1.95418930   0.70319974
H    4.01306868  -1.39764953  -0.10784996
H    1.52033937  -2.26380920  -1.34025955
H    2.99601889  -2.93610883  -1.45472944
H    2.66162896   2.11247921   0.06319997
H    6.80007792   1.13641965  -0.00542000

