%chk=mol_4715.chk
# wB97XD/Def2SVP opt freq pop=full gfinput

C 4 H 6 N 2 O 1

1 2
C    2.48218918  -1.09253955   0.09149997
C    2.15122914   0.20510992   0.11059996
N    2.93452883   1.29940951  -0.25430989
C    2.36331916   2.56252885  -0.15637994
N    2.92537904   3.68512845  -0.44721985
C    4.24505854   1.17293954  -0.70290971
O    4.99499846   2.08386922  -1.04698956
H    1.75274932  -1.83434939   0.40899986
H    3.44021893  -1.48579943  -0.22288992
H    1.14514959   0.45155981   0.45051983
H    1.32357955   2.57248902   0.20984992
H    3.89227867   3.50976872  -0.77502972
H    4.60756826   0.13731995  -0.73740971

