%chk=mol_7013.chk
# wB97XD/Def2SVP opt freq pop=full gfinput

C 6 H 9 N 1

1 2
C    3.53242874  -1.16965961  -2.35803914
C    3.57838869  -0.64118975  -1.29262948
C    3.63415861   0.00000000   0.00000000
C    4.39716864   1.32046950  -0.07441998
C    3.68434858   2.52085900  -0.74123973
C    4.28668833   3.33913875   0.41228986
N    4.33685827   2.08979917   1.20432949
H    3.48855877  -1.64468932  -3.31108880
H    4.13050842  -0.66635972   0.71609974
H    2.61740899   0.16260995   0.37862986
H    5.43044806   1.18637955  -0.42665982
H    2.58861899   2.47553897  -0.72785974
H    4.02263832   2.78645897  -1.74536943
H    5.27405787   3.76314855   0.19405992
H    3.64444876   4.12062836   0.82577968
H    5.16124821   1.99696934   1.79723942

