%chk=mol_3224.chk
# wB97XD/Def2SVP opt pop=full gfinput

C 5 H 12 O 2

1 2
C    1.530848   1.772317  -0.177634
C    4.291058   1.159328  -0.633928
O    5.743161   3.381079  -0.154995
C    8.386510   2.937617  -0.479688
C    9.842582   5.340271   0.184532
C    9.100695   7.574665  -1.479656
O    6.589966   8.382504  -0.974645
H    0.344195   0.111437  -0.495411
H    0.905576   3.291638  -1.434132
H    1.244895   2.437955   1.759996
H    4.569112   0.554994  -2.594859
H    4.893635  -0.359048   0.638822
H    8.758937   2.393055  -2.442641
H    8.990618   1.399966   0.768930
H   11.871487   4.976991  -0.004951
H    9.449462   5.826082   2.161828
H    9.248962   7.094599  -3.484768
H   10.355170   9.175716  -1.109761
H    5.579643   6.849123  -0.720571

