%chk=mol_1096.chk
# wB97XD/Def2SVP opt freq pop=full gfinput

C 4 H 7 N 1 O 1

1 2
N    1.00699961   0.01435000   0.03682999
C    2.46999907   0.00000000   0.00000000
C    2.98223877  -0.76878971  -1.23898947
O    4.38493872  -1.03358960  -1.15196955
C    2.95201898   1.36116946   0.00000000
C    3.34929872   2.48306894   0.00000000
H    0.70768970   0.51642978   0.87186968
H    0.66806972  -0.94016963   0.14390995
H    2.83859897  -0.50664979   0.90025967
H    2.79017901  -0.22412992  -2.17106938
H    2.48580909  -1.74232936  -1.31161952
H    4.83422852  -0.16949993  -1.16805959
H    3.69435859   3.49143887  -0.00060000

