%chk=mol_3365.chk
# wB97XD/Def2SVP opt freq pop=full gfinput

C 6 H 10 O 1

1 2
C    5.10327816  -0.33514988  -0.45775983
O    3.71371865  -0.03763999  -0.53656983
C    3.30901861   1.19212961  -0.08809997
C    4.04873848   2.20115924   0.39665985
C    3.53359890   3.48148870   0.86556965
C    2.04856920   3.72621870   0.87589967
C    4.38588810   4.42822838   1.29264951
H    5.25371790  -1.34671950  -0.84534967
H    5.44749784  -0.31701988   0.58118981
H    5.68786812   0.35360986  -1.07579958
H    2.23009920   1.24125946  -0.18783994
H    5.12848806   2.08692908   0.45827985
H    1.63911939   3.67701864  -0.13882995
H    1.80037940   4.71506786   1.27858949
H    1.53737938   2.98619890   1.50115943
H    5.46139765   4.28095818   1.29889953
H    4.02828836   5.38908815   1.65023935

