%chk=mol_5442.chk
# wB97XD/Def2SVP opt freq pop=full gfinput

C 5 H 9 N 1 O 1

1 2
C    7.11808729   2.11817908  -0.02963999
O    6.16500807   2.92972898  -0.70575976
N    4.93923807   2.82841897  -0.03107999
C    4.05417824   3.51797867  -0.67533976
C    2.62665892   3.58560848  -0.19797993
C    2.32467914   4.99514818   0.21459992
C    1.40425944   5.77151775  -0.37280986
H    8.06895638   2.18237925  -0.56449980
H    6.78886747   1.07452965  -0.02039999
H    7.26340723   2.47736907   0.99418968
H    4.30320835   4.06917858  -1.59959936
H    2.48268914   2.91074896   0.65134972
H    1.98115921   3.25600863  -1.01858962
H    2.89171910   5.39083767   1.05601954
H    0.80535972   5.42038774  -1.20773959
H    1.22580945   6.78329754  -0.02059999

