%chk=mol_5222.chk
# wB97XD/Def2SVP opt pop=full gfinput

C 4 H 6 N 2 O 1

1 2
C    2.609013  -0.328170   0.240260
N    4.979334   0.239107   0.245249
N    5.507682   2.503131  -0.862263
C    4.976235   4.921244   0.432502
C    7.445521   5.921381  -0.723803
C    7.997491   3.131182  -1.298147
O    9.861876   1.919773  -1.829406
H    1.978430  -2.117967   1.094737
H    1.135366   0.884619  -0.600045
H    4.962307   4.762337   2.494949
H    3.251406   5.836268  -0.239277
H    7.238294   7.087153  -2.416903
H    8.751208   6.800519   0.609852

