%chk=mol_3492.chk
# wB97XD/Def2SVP opt pop=full gfinput

C 6 H 10 O 1

1 2
O    1.972194  -0.190995  -0.188330
C    4.643681   0.116502  -0.056446
C    6.365259  -1.139977  -2.077981
C    8.370882  -0.594281   0.019162
C    6.224418  -1.451518   1.858621
C    8.429502   2.289687   0.247838
C    5.581268   2.830829   0.184437
H    1.334619   0.429705   1.419543
H    6.609090  -0.123645  -3.862317
H    5.987370  -3.133846  -2.491245
H   10.140100  -1.644345  -0.000435
H    5.828992  -3.482879   1.926255
H    6.335553  -0.727866   3.792265
H    9.294165   2.913145   2.019607
H    9.418924   3.176856  -1.336490
H    5.053317   3.999208  -1.438819
H    4.931221   3.743585   1.922683

