%chk=mol_2242.chk
# wB97XD/Def2SVP opt freq pop=full gfinput

C 7 H 6

1 2
C    0.96434963  -0.03522998   0.00001000
C    2.30159926  -0.00816000   0.00000000
C    3.01703882   1.21762955   0.00000000
C    3.61211872   2.24833918   0.00000000
C    4.33411837   3.49887872   0.00000000
C    3.73088861   4.81084824   0.00000000
C    3.23370886   5.89217758   0.00000000
H    0.42980984  -0.97930962   0.00001000
H    0.37491983   0.87699968   0.00001000
H    2.86811900  -0.93347961  -0.00000000
H    5.01268816   3.46733856  -0.86487967
H    5.01268816   3.46733856   0.86487967
H    2.78466892   6.85869741  -0.00000000

