%chk=mol_3220.chk
# wB97XD/Def2SVP opt pop=full gfinput

C 7 H 6

1 2
C    1.889726   0.000000   0.000000
C    4.618491   0.000000   0.000000
C    6.867567   0.000000   0.000000
C    9.452712   0.000000   0.000000
C   11.701789   0.000000   0.000000
C   14.358744   0.000000   0.000000
C   15.688336   2.150565  -0.000000
H    1.145042   1.929127   0.022072
H    1.145023  -0.983678   1.659633
H    1.145023  -0.945449  -1.681724
H   15.330536  -1.807712   0.000000
H   14.773388   3.986151  -0.000000
H   17.737083   2.110484  -0.000000

