%chk=mol_4924.chk
# wB97XD/Def2SVP opt freq pop=full gfinput

C 5 H 7 N 1 O 1

1 2
C    1.05738962  -0.06146998   0.42394984
C    2.51999903   0.00000000   0.00000000
O    2.64652896  -0.53873980  -1.32468951
N    2.78362894  -1.93660927  -1.25696945
C    2.94916892  -2.38938904  -2.45210910
C    3.00201893   1.36116946   0.00000000
C    3.39929867   2.48306894   0.00000000
H    0.91196966   0.35891986   1.42526937
H    0.69773972  -1.09646952   0.42907986
H    0.41811985   0.48989981  -0.27622989
H    3.12710881  -0.59513980   0.69437975
H    3.08115864  -3.47010875  -2.61751890
H    2.96861911  -1.74000943  -3.34347868
H    3.75685883   3.48686886  -0.00441000

