%chk=mol_6768.chk
# wB97XD/Def2SVP opt freq pop=full gfinput

C 5 H 12 N 2

1 2
C    0.89221966  -0.03939999  -0.21549992
C    2.37193918   0.07076998   0.04186998
C    2.75845885  -0.02681999   1.49340940
N    3.28870869  -0.54153979  -0.93075961
C    3.19065881   0.92232966  -0.92070967
C    4.37919855   1.73302937  -0.50648981
N    5.30090809   1.78512943  -1.63871932
H    0.64771980   0.04561998  -1.28085947
H    0.35584989   0.75600970   0.31385988
H    0.51188982  -1.00418961   0.13836995
H    3.83012867  -0.20158993   1.63538945
H    2.23147917  -0.85796970   1.97527921
H    2.48913908   0.89582968   2.01818919
H    2.78467894  -0.92050970  -1.73354936
H    2.67794895   1.37514949  -1.76377940
H    4.89964819   1.30627942   0.35650989
H    4.06297827   2.74720883  -0.24260992
H    5.53403807   0.81975967  -1.88126934
H    6.17302752   2.21211934  -1.33306944

