%chk=mol_0839.chk
# wB97XD/Def2SVP opt pop=full gfinput

C 4 H 8 O 2

1 2
C    4.773486  -1.735525   1.172821
O    7.327319  -0.894615   1.202811
C    7.599704   1.507359   0.000794
C   10.370363   2.242727   0.040459
C   11.134398   2.913353   2.692085
O   12.141415   4.930239   3.246663
H    4.683743  -3.572093   2.114320
H    4.107792  -1.956188  -0.772255
H    3.563457  -0.407236   2.195824
H    6.441925   2.912522   0.989177
H    6.955081   1.357220  -1.961403
H   10.697891   3.882782  -1.176638
H   11.573496   0.680283  -0.584133
H   10.823974   1.441729   4.136762

