%chk=mol_4888.chk
# wB97XD/Def2SVP opt pop=full gfinput

C 5 H 9 N 1 O 1

1 2
C    1.870016  -0.029518   0.077762
C    4.762110   0.000000   0.000000
O    5.620480  -1.269442   2.228157
C    5.692667  -1.481848  -2.375594
N    8.455938  -1.677037  -2.667575
C    5.672996   2.572238   0.000000
C    6.423746   4.692322   0.000000
H    1.042278   0.902703  -1.577279
H    1.158402   0.930067   1.773735
H    1.151448  -1.972005   0.163008
H    5.574239  -0.052667   3.600873
H    4.932714  -0.591503  -4.086948
H    4.960096  -3.418420  -2.298757
H    9.240402   0.076723  -2.550639
H    8.871773  -2.372854  -4.410697
H    7.102800   6.588814   0.005216

