%chk=mol_6434.chk
# wB97XD/Def2SVP opt pop=full gfinput

C 4 H 8 O 2 S 1

1 2
C    1.753420   0.082959  -0.027590
C    4.614749   0.004743   0.025133
C    5.931586   1.916144   1.821205
C    8.109098   0.051495   2.371871
S    6.054002  -2.511786   1.740513
O    4.612028  -3.214462   3.958353
O    7.205224  -4.338981   0.065120
H    1.001649  -1.510742  -1.111027
H    1.092791   1.826534  -0.923566
H    0.945808   0.002135   1.875232
H    5.381883   0.075306  -1.902331
H    4.824225   2.394888   3.508484
H    6.514188   3.688481   0.928895
H    9.682390   0.141427   1.032131
H    8.838136   0.091557   4.303152

