%chk=mol_0180.chk
# wB97XD/Def2SVP opt freq pop=full gfinput

C 4 H 7 N 1

1 2
C    0.99649960  -0.04885998  -0.01331999
N    2.45032907   0.00498000   0.00674000
C    2.92365885   1.38591945   0.02619999
C    4.39212847   1.40245938  -0.00838000
C    5.59237766   1.41613948  -0.03731999
H    0.67044979  -1.09366953  -0.02094999
H    0.58763975   0.43709984  -0.90522963
H    0.56999981   0.42199984   0.87830967
H    2.81986904  -0.45483986  -0.82428974
H    2.57673907   1.89163923   0.93456966
H    2.53528905   1.93862927  -0.83722973
H    6.65807724   1.42148948  -0.05731998

