%chk=mol_2923.chk
# wB97XD/Def2SVP opt freq pop=full gfinput

C 6 H 8 O 1

1 2
C    0.98597962  -0.01683999   0.01763999
C    2.51999903   0.00000000   0.00000000
C    3.05824876  -0.74228972   1.23067951
C    2.96763897  -0.77337974  -1.23870957
O    3.49395871  -0.28984991  -2.23729920
C    3.00201893   1.36116946   0.00000000
C    3.39929867   2.48306894   0.00000000
H    0.57361978   0.48538980  -0.86572969
H    0.58945978   0.49386981   0.90275967
H    0.59746975  -1.04153967   0.01793999
H    2.75112891  -0.25127992   2.16161919
H    4.15449858  -0.78011972   1.22328961
H    2.69924903  -1.77756929   1.26376963
H    2.74700904  -1.85579932  -1.21547961
H    3.75985861   3.48592854  -0.01371999

