%chk=mol_1010.chk
# wB97XD/Def2SVP opt freq pop=full gfinput

C 4 H 7 N 1 O 1

1 2
C    1.02397966  -0.02156999   0.01407999
C    2.53593898  -0.05758998   0.05374998
N    3.09398890  -1.31721950   0.14934994
C    3.20989895   1.10367954  -0.00120000
C    4.67824841   1.21775949   0.09330996
O    5.24167776   2.29733920  -0.04490998
H    0.62973976   0.99897963  -0.03715999
H    0.61135978  -0.49220982   0.91298962
H    0.65554976  -0.56529981  -0.86249965
H    2.46681929  -2.06991935  -0.13132995
H    4.01335859  -1.42218947  -0.27106988
H    2.69880891   2.05691934  -0.09134997
H    5.23683786   0.29128990   0.29616988

