%chk=mol_3738.chk
# wB97XD/Def2SVP opt freq pop=full gfinput

C 6 H 12 O 1

1 2
O    0.99314958  -0.36544985  -0.20063992
C    2.38123894  -0.21799992   0.06595998
C    2.75077891   1.25290954  -0.05712998
C    4.23560810   1.48567939   0.21274991
C    4.59756851   2.96656871   0.08284996
C    6.05991793   3.19489884   0.33732986
C    6.53827763   3.97241855   1.31667948
H    0.78473967  -1.31139946  -0.11360995
H    2.94009900  -0.82381970  -0.65487975
H    2.58318901  -0.58928978   1.07606959
H    2.14144921   1.83966923   0.64107972
H    2.48659921   1.61088932  -1.05967963
H    4.83311796   0.89364964  -0.49306983
H    4.48579836   1.12947953   1.22078955
H    3.98698854   3.55730867   0.77640975
H    4.36252832   3.31853890  -0.92848963
H    6.76049757   2.70061898  -0.33268988
H    5.88061810   4.49340820   2.00568914
H    7.60790730   4.10592842   1.44762945

