%chk=mol_1131.chk
# wB97XD/Def2SVP opt freq pop=full gfinput

C 4 H 3 N 1 O 1

1 2
O    1.00609958   0.00658000  -0.11660995
C    2.41999912   0.00000000   0.00000000
C    2.90201902   1.36116946   0.00000000
C    3.29929876   2.48306894   0.00000000
C    3.81223869   3.92941856  -0.00038000
N    4.21190834   5.01877785   0.00029000
H    0.71912974  -0.92165965  -0.11488996
H    2.83414888  -0.56451976  -0.84090972
H    2.68852901  -0.51311982   0.92838967

