%chk=mol_1857.chk
# wB97XD/Def2SVP opt pop=full gfinput

C 5 H 10 N 2

1 2
C    7.114252  -2.921535  -1.666304
N    9.319147  -1.438100  -0.936492
N    8.908623   1.074820  -0.689656
C   10.805114   2.455775   0.093447
C   13.381680   1.381994   0.744495
C   10.302238   5.224809   0.328227
C   11.934093   7.016402   1.051160
H    7.603105  -4.929861  -1.705327
H    6.446158  -2.375253  -3.546203
H    5.574484  -2.667405  -0.308762
H   10.742035  -1.799189  -2.192082
H   13.170938  -0.095507   2.176435
H   14.686195   2.787951   1.492184
H   14.231585   0.565860  -0.955219
H    8.377251   5.758373  -0.158435
H   13.878640   6.651118   1.567093
H   11.316511   8.971852   1.144683

