%chk=mol_4210.chk
# wB97XD/Def2SVP opt freq pop=full gfinput

C 4 H 8 N 2 O 1

1 2
C    0.95368963   0.04110999  -0.08086997
C    2.46971893  -0.03431999  -0.01063000
O    3.02540898   0.15590994  -1.30116951
C    2.99888897  -1.29650950   0.67896974
N    3.27844882  -0.81270975   2.02953911
N    3.47752881   0.52661979   2.06903934
C    2.99277902   0.99307966   0.96347964
H    0.48998982  -0.05167998   0.90685964
H    0.55729979  -0.74868971  -0.72799975
H    0.63385981   0.99557960  -0.51413983
H    3.99334860   0.07893997  -1.22316945
H    3.92126846  -1.65516949   0.20719992
H    2.27423930  -2.11582923   0.69224977
H    4.00736856  -1.33991945   2.51297903
H    2.95554900   2.06433916   0.71919972

