%chk=mol_3640.chk
# wB97XD/Def2SVP opt pop=full gfinput

C 6 H 10 O 1

1 2
O    4.191016  -0.636630   2.633919
C    4.672707  -0.018028   0.071091
C    5.625374   2.620861  -0.050664
C    7.832858   3.416096  -1.000610
C    8.153885   6.203574  -0.718738
C    5.495248   7.089534  -0.029499
C    4.116409   4.771369   1.003520
H    3.673987  -2.397080   2.659733
H    2.915640  -0.202125  -1.004012
H    6.055854  -1.358486  -0.684043
H    9.265554   2.202797  -1.810169
H    9.511312   6.621582   0.785484
H    8.801721   7.085736  -2.472253
H    4.525516   7.777678  -1.729666
H    5.521288   8.649749   1.328874
H    2.150848   4.738583   0.361769
H    4.151747   4.739622   3.072544

