%chk=mol_5265.chk
# wB97XD/Def2SVP opt freq pop=full gfinput

C 4 H 7 N 1 O 2

1 2
C    2.39899921  -0.40904987  -1.71018934
N    2.57795906   0.35252985  -0.49081981
O    1.74476933  -0.14874995   0.53659976
C    3.84568858   0.78013968  -0.13365994
O    4.77594805   0.87455964  -0.93254966
C    4.01136875   1.19572961   1.29008949
C    5.17151833   1.70764947   1.72410941
H    2.95247889   0.05771998  -2.53005886
H    1.33448946  -0.44463983  -1.95830929
H    2.77718902  -1.42435956  -1.55623949
H    1.04305959   0.52872980   0.55655980
H    3.17917895   1.07460964   1.96984923
H    6.02088785   1.83529925   1.05799961
H    5.29406786   2.00882912   2.75867891

