%chk=mol_3769.chk
# wB97XD/Def2SVP opt pop=full gfinput

C 5 H 8 O 2

1 2
O    1.109987   0.195719   1.709371
C    3.540383  -0.643924   0.914798
C    5.205780   1.646140   0.445371
C    7.820121   0.876039  -0.417611
O    8.445621  -1.345485  -0.700314
C    9.737343   2.868510  -0.957732
C    9.352236   5.356466  -0.729321
H    0.094713  -1.312528   1.988068
H    3.315506  -1.769653  -0.807102
H    4.334219  -1.852121   2.395738
H    5.354841   2.752613   2.189475
H    4.332178   2.845228  -0.999552
H   11.555279   2.146256  -1.579150
H    7.572548   6.167896  -0.115765
H   10.865453   6.673625  -1.166018

