%chk=mol_5773.chk
# wB97XD/Def2SVP opt pop=full gfinput

C 4 H 12 N 2 O 1

1 2
N    1.895736  -0.139632  -0.197665
C    4.669154  -0.030368  -0.186932
C    5.615227   2.730730   0.052534
N    4.267928   4.031428   2.125035
C    8.494962   2.818262   0.432861
C    9.548087   5.505849   0.473735
O    8.679267   6.851108   2.627891
H    1.340213  -1.973479  -0.409088
H    1.231648   0.796482  -1.747694
H    5.402179  -0.882597  -1.925858
H    5.356107  -1.159328   1.407903
H    5.146707   3.730830  -1.702983
H    4.644852   3.079441   3.767415
H    2.386686   3.623096   1.848058
H    9.413614   1.771996  -1.103071
H    8.984797   1.866086   2.209978
H    8.997591   6.550982  -1.224732
H   11.612726   5.456150   0.554143
H    6.846402   6.546068   2.705049

