%chk=mol_3355.chk
# wB97XD/Def2SVP opt freq pop=full gfinput

C 6 H 12 O 1

1 2
C    4.06313848  -0.91487968   0.27865988
O    3.50094867   0.06850997   1.13489962
C    3.43224859   1.36580944   0.53482980
C    2.41183901   2.16789913   1.33735943
C    4.78472805   2.02334929   0.59663981
C    5.68000793   2.06325912  -0.61891973
C    5.04366779   3.32757854  -0.11653996
H    4.02915859  -1.87784922   0.79734969
H    5.10800791  -0.68669975   0.05163998
H    3.48336864  -1.00018966  -0.64555973
H    3.07012892   1.28064954  -0.49828979
H    2.72158909   2.26334906   2.38378906
H    1.44112945   1.66021931   1.33757949
H    2.27917910   3.17371893   0.92598969
H    5.25200844   1.88963926   1.56704938
H    5.31421804   1.65322936  -1.55302942
H    6.74501753   1.93410933  -0.46591982
H    5.67926788   4.05474854   0.37980986
H    4.25059843   3.76755857  -0.70951974

