%chk=mol_1451.chk
# wB97XD/Def2SVP opt pop=full gfinput

C 5 H 10 N 2

1 2
C    1.110951   0.673385   2.096481
C    2.651116   1.237260  -0.256757
C    5.355541   1.890501   0.443727
N    5.973878   4.225957   0.881444
N    7.188461   0.083809   0.678620
C    7.127253  -2.486785   0.435034
C    9.086748  -4.057128   0.698254
H   -0.836468   0.203675   1.586123
H    1.071116   2.308678   3.363543
H    1.907301  -0.917745   3.150797
H    1.811737   2.836006  -1.271294
H    2.619066  -0.375205  -1.550104
H    4.433978   5.382998   0.666601
H    8.892522   0.831895   1.145798
H    5.279045  -3.263670  -0.007861
H   10.967328  -3.374824   1.141017
H    8.841046  -6.080061   0.467707

