%chk=mol_2995.chk
# wB97XD/Def2SVP opt pop=full gfinput

C 5 H 8 O 2

1 2
C    1.814591  -0.124646   0.759878
C    4.279644   0.902930  -0.325959
C    4.772957   0.023773  -3.033937
C    2.741804   0.844689  -4.857862
O    0.999533  -0.545280  -5.503298
C    4.318534   3.755472  -0.082184
O    4.855954   5.192306  -1.819957
H    1.618173   0.402776   2.752537
H    1.759581  -2.189380   0.641921
H    0.163990   0.632359  -0.232625
H    5.837062   0.214881   0.857973
H    4.895411  -2.043437  -3.098546
H    6.575434   0.759708  -3.740581
H    2.846494   2.814823  -5.531871
H    3.923884   4.502726   1.826175

