%chk=mol_1097.chk
# wB97XD/Def2SVP opt pop=full gfinput

C 4 H 9 N 1 O 1

1 2
N    2.672356  -0.763185  -1.508720
C    5.393751  -0.510812  -0.976781
C    6.070159   2.266745  -0.379646
O    4.485001   3.129651   1.624144
C    8.751435   2.557026   0.477042
C   10.537056   3.833801  -0.787487
H    2.281353  -2.621296  -1.848209
H    2.263968   0.162176  -3.151648
H    6.496198  -1.206477  -2.586015
H    5.817465  -1.709409   0.660762
H    5.680422   3.452567  -2.032552
H    2.878053   2.258298   1.339589
H    9.233466   1.689661   2.277309
H   10.140195   4.766456  -2.570028
H   12.438329   3.994957  -0.033939

