%chk=mol_0062.chk
# wB97XD/Def2SVP opt freq pop=full gfinput

C 4 H 10 O 1

1 2
C    0.92442966  -0.04115998   0.02328999
C    2.44154906  -0.01534999   0.00770000
C    2.98474884   1.40783954   0.00002000
O    4.40971851   1.34405947  -0.01610000
C    4.99281788   2.63992906  -0.01390999
H    0.56207979  -1.07410955   0.03040999
H    0.51379985   0.45631984  -0.86186963
H    0.53181982   0.46231982   0.91308969
H    2.81408906  -0.55531979  -0.87053972
H    2.83187890  -0.55221975   0.87998968
H    2.65218902   1.94588923   0.89587969
H    2.63274884   1.94404924  -0.88953966
H    6.08058786   2.52818918  -0.03315999
H    4.71370840   3.18366885   0.89364964
H    4.68347836   3.20140862  -0.90039963

