%chk=mol_4012.chk
# wB97XD/Def2SVP opt freq pop=full gfinput

C 4 H 7 N 1 O 2

1 2
C    1.02720964  -0.03553999   0.10714997
C    2.53785896   0.02284999  -0.00702000
C    3.15687871   1.17643952   0.75395972
N    4.37463808   0.60231978   1.21008956
C    4.25876808  -0.76066971   1.24601960
O    5.03494835  -1.51467943   1.80357933
O    3.11945891  -1.14574957   0.59728980
H    0.64062977  -0.91318965  -0.42170987
H    0.56367975   0.86058962  -0.31567988
H    0.71296972  -0.13735995   1.15153956
H    2.83828878   0.03426999  -1.06156957
H    2.57234907   1.46566939   1.63358939
H    3.34664893   2.05598927   0.13443995
H    5.05278826   1.04566956   1.81543922

