%chk=mol_3571.chk
# wB97XD/Def2SVP opt pop=full gfinput

C 6 H 8 O 1

1 2
O    1.745124  -0.185590   0.217356
C    4.436680  -0.005027   0.226408
C    5.290024   2.507232  -1.011155
C    7.158755   2.258430  -3.141386
C    7.944749   0.016535  -4.017482
C    7.021277  -2.320773  -2.973352
C    5.404862  -2.354504  -1.023948
H    1.097912   1.316837   1.048949
H    5.036952  -0.026381   2.209638
H    6.160488   3.689142   0.453780
H    3.647134   3.563230  -1.706139
H    7.871579   3.987568  -3.985924
H    9.287569  -0.094014  -5.566510
H    7.664918  -4.072530  -3.827678
H    4.733121  -4.148402  -0.289147

