%chk=mol_5763.chk
# wB97XD/Def2SVP opt freq pop=full gfinput

C 4 H 5 N 1 O 2

1 2
N    0.79274970   0.15029995   0.19014993
C    2.14792919   0.01397000   0.03220999
C    3.06869888   0.97044963   0.18580993
C    4.50492859   0.66187972  -0.01364999
O    4.93874788  -0.43631983  -0.33523986
C    5.49274778   1.78770936   0.19174993
O    5.13341808   2.92227888   0.46701983
H    0.23917991  -0.49105981  -0.37434986
H    0.44723985   1.10652959   0.15996994
H    2.43882918  -1.00400960  -0.23458992
H    2.80476904   1.98309922   0.46468982
H    6.54481745   1.49017954   0.06636997

