%chk=mol_5773.chk
# wB97XD/Def2SVP opt freq pop=full gfinput

C 4 H 12 N 2 O 1

1 2
N    1.00317967  -0.07388997  -0.10459996
C    2.47080898  -0.01607000  -0.09891997
C    2.97144890   1.44503939   0.02779999
N    2.25848913   2.13333917   1.12451959
C    4.49533844   1.49135935   0.22905992
C    5.05262804   2.91356897   0.25068992
O    4.59286833   3.62544870   1.39061952
H    0.70920974  -1.04431963  -0.21647993
H    0.65175974   0.42147985  -0.92483968
H    2.85870886  -0.46704984  -1.01911962
H    2.83432889  -0.61348981   0.74502975
H    2.72351909   1.97426927  -0.90117967
H    2.45794892   1.62956941   1.99362934
H    1.26297951   1.91725922   0.97794962
H    4.98146820   0.93769962  -0.58371979
H    4.75454807   0.98748964   1.16946959
H    4.76131821   3.46662879  -0.64809978
H    6.14518785   2.88726902   0.29323989
H    3.62295866   3.46402884   1.43144953

