%chk=mol_5456.chk
# wB97XD/Def2SVP opt freq pop=full gfinput

C 4 H 9 N 1 O 2

1 2
C    1.81115937  -0.61221981   0.38519984
O    3.15536880  -0.27574989   0.05795998
N    3.29569888   1.11898959   0.13273995
C    4.54627800   1.41389954  -0.03124999
C    5.00736809   2.86010909  -0.02463999
C    5.32384777   3.30389881  -1.44089949
O    4.02712870   3.72352862   0.52798980
H    1.68890941  -1.69224942   0.27205992
H    1.11505949  -0.10489997  -0.28977990
H    1.59872937  -0.33905989   1.42284942
H    5.31586838   0.64222974  -0.21061993
H    5.90671825   2.92241883   0.59525979
H    4.42597818   3.27894878  -2.07008910
H    6.08085775   2.66114902  -1.90257919
H    5.68760777   4.33708858  -1.44779944
H    3.16504884   3.29326868   0.35918987

