%chk=mol_1667.chk
# wB97XD/Def2SVP opt freq pop=full gfinput

C 5 H 8 N 2

1 2
C    1.10457957  -0.03703998  -0.23653992
N    2.51536894   0.04080999   0.04940998
C    3.28121877  -1.04503965   0.35510984
N    4.54942799  -0.86010963   0.58259976
C    4.71208858   0.62371981   0.41123983
C    3.33340883   1.14407957   0.03135999
C    3.06724882   2.42263889  -0.25518990
H    0.64737976   0.94863963  -0.36524984
H    0.57936978  -0.53751975   0.58440977
H    0.93344969  -0.61117977  -1.15316951
H    2.77665901  -2.02434921   0.38775983
H    5.05211782   1.05541956   1.35789955
H    5.44466829   0.81521964  -0.37871987
H    3.85041857   3.17266870  -0.22273992
H    2.07426929   2.75611901  -0.53026980

