%chk=mol_1352.chk
# wB97XD/Def2SVP opt pop=full gfinput

C 6 H 13 N 1

1 2
C    1.710731  -0.316302  -0.675294
C    4.575877  -0.469578  -0.842308
C    5.838536   1.440878   0.921865
N    8.591187   1.186276   0.720137
C    9.802387   3.197719  -0.737352
C    9.954303   3.141991   2.110881
C   12.359470   2.447441   3.399088
H    0.844443  -1.722958  -1.919981
H    1.034285   1.552467  -1.249922
H    1.058662  -0.678733   1.254514
H    5.157403  -0.127783  -2.801481
H    5.175695  -2.391354  -0.349845
H    5.271693   1.036874   2.875218
H    5.161995   3.353300   0.481672
H    8.630984   4.619776  -1.628679
H   11.445032   2.634543  -1.822301
H    8.870015   4.513592   3.177045
H   13.502698   1.136784   2.276988
H   11.959056   1.552958   5.220727
H   13.489735   4.142847   3.751541

