%chk=mol_5928.chk
# wB97XD/Def2SVP opt freq pop=full gfinput

C 5 H 9 N 1 O 1

1 2
O    1.00807965  -0.07794997  -0.09548996
C    2.42736912   0.06890997  -0.03149999
C    3.35119891  -0.58603978  -1.07928956
N    4.42242813  -0.34450987  -0.00102000
C    3.28838873  -0.75254971   0.95141965
C    4.43898821   1.14209962   0.11895996
C    2.94936895   1.48252940   0.09283996
H    0.67829973   0.24442990   0.76047975
H    3.50894880  -0.04512998  -2.01901937
H    3.16353893  -1.64176941  -1.31261957
H    3.09151888  -1.83122933   0.99834967
H    3.38211870  -0.37167984   1.97452927
H    4.91561842   1.45626950   1.05405962
H    4.97900820   1.59890938  -0.71747971
H    2.68212891   2.10350919  -0.76769972
H    2.62138891   1.96887922   1.01677966

