%chk=mol_5686.chk
# wB97XD/Def2SVP opt pop=full gfinput

C 4 H 9 N 1 O 2

1 2
N    3.764486  -0.988006  -2.489563
C    4.327983   0.019426   0.030500
C    5.925860   2.422005  -0.155676
O    8.260616   1.884492  -1.517790
C    4.478594   4.819293  -0.973946
O    5.461554   6.211039   1.181173
C    6.237665   3.860332   2.361723
H    3.053023  -2.769186  -2.317258
H    5.450953  -1.182780  -3.419989
H    5.358300  -1.417068   1.110857
H    2.545915   0.378455   1.021737
H    9.092399   3.522147  -1.658140
H    2.412651   4.723862  -0.924719
H    5.092472   5.660561  -2.759284
H    8.171837   3.977439   3.080726
H    4.957999   3.332022   3.898713

