%chk=mol_0951.chk
# wB97XD/Def2SVP opt freq pop=full gfinput

C 4 H 5 N 1 O 1

1 2
C    1.01711965   0.02520999  -0.11268996
C    2.34475923  -0.03848998  -0.00569000
C    3.27408862  -1.18733954  -0.01959999
O    4.58221817  -0.62048978   0.20316993
N    4.48156834   0.79957968   0.28844988
C    3.23188877   1.10157967   0.17349993
H    0.42318985  -0.87467968  -0.23848991
H    0.48705983   0.97256964  -0.07567997
H    3.28303862  -1.69680941  -0.98712963
H    3.06512880  -1.89993930   0.78284973
H    2.82978892   2.12346935   0.20405993

