%chk=mol_1120.chk
# wB97XD/Def2SVP opt freq pop=full gfinput

C 4 H 9 N 1 O 1

1 2
O    1.95374918  -1.30509961  -0.20497993
C    2.08461928   0.08448997  -0.48620981
C    2.91749907   0.75755972   0.60035980
C    4.35644817   0.33522987   0.53740984
C    5.38776779   1.18806958  -0.15698995
N    5.34261799   1.10374951   1.29895961
H    1.35252953  -1.67647934  -0.87345970
H    1.08052969   0.51995981  -0.50830984
H    2.54506922   0.19950992  -1.47251940
H    2.52038908   0.48835981   1.58630931
H    2.83281875   1.84563935   0.49170983
H    4.48221827  -0.74151969   0.54831982
H    5.08956814   2.13982916  -0.57888979
H    6.22323799   0.70188975  -0.64481974
H    6.07289791   0.48488981   1.65733933

