%chk=mol_0645.chk
# wB97XD/Def2SVP opt pop=full gfinput

C 4 H 8 O 2

1 2
C    1.985309  -0.186573  -0.122435
C    4.771672   0.169716  -0.109434
O    5.997499  -0.498000  -2.431605
C    6.007156   2.135939  -1.757748
C    8.561385   3.157600  -1.173728
O    9.993911   3.300577  -3.442098
H    1.111329   0.992163   1.335847
H    1.516637  -2.161299   0.279056
H    1.143795   0.316265  -1.945643
H    5.652700  -0.392099   1.646613
H    4.863437   3.409406  -2.872554
H    9.592798   1.970814   0.173023
H    8.413117   5.059288  -0.375810
H    9.887274   1.628831  -4.209573

