%chk=mol_6524.chk
# wB97XD/Def2SVP opt freq pop=full gfinput

C 5 H 7 N 1 S 1

1 2
C    0.95689964  -0.18542993  -0.01236000
C    2.46119905   0.02922999   0.02768999
C    2.82461882   1.47763956   0.01217000
C    3.06334901   2.28050923   1.11309958
S    3.44391870   3.87491846   0.61162978
C    3.26486874   3.38020873  -1.01917958
N    2.94355893   2.11998916  -1.21088958
H    0.72503978  -1.25522959  -0.00569000
H    0.51843983   0.25257990  -0.91593963
H    0.46811983   0.27439991   0.85370970
H    2.92230892  -0.46813983  -0.83342969
H    2.87317896  -0.44654983   0.92505968
H    3.03152895   2.01332927   2.15960908
H    3.40927863   4.07035828  -1.83995926

