%chk=mol_6588.chk
# wB97XD/Def2SVP opt pop=full gfinput

C 4 H 5 N 1 O 1 S 1

1 2
C    1.889896   0.082335  -0.015175
N    4.609004  -0.061227   0.001380
C    6.157446   2.029018   0.006633
C    8.621876   1.477652   0.017839
S    9.134501  -1.766875   0.021127
C    5.838120  -2.376482   0.005386
O    4.911398  -4.485397  -0.001209
H    1.245481   2.045912   0.012340
H    1.154472  -0.913588   1.641114
H    1.179473  -0.859391  -1.713736
H    5.358413   3.912621   0.001984
H   10.145184   2.838992   0.023773

