%chk=mol_3510.chk
# wB97XD/Def2SVP opt freq pop=full gfinput

C 7 H 14

1 2
C    2.18880916  -0.53397983   1.30278945
C    2.48457909   0.06693997  -0.06399997
C    3.07165861   1.46403944   0.03270999
C    2.01484919   2.54326892   0.09997996
C    4.40431833   1.71783936   0.03578999
C    5.46615791   0.64243972   0.04713998
C    5.00105810   3.10499883   0.02538999
H    1.76940942  -1.53898942   1.18890953
H    1.46399951   0.07005997   1.85864937
H    3.09818888  -0.61520982   1.90782928
H    1.55898941   0.10255996  -0.65223980
H    3.14558887  -0.60221976  -0.62469977
H    1.20046949   2.24136925   0.76733971
H    1.59324932   2.71848917  -0.89501965
H    2.38775897   3.49160862   0.49426982
H    5.08044815  -0.35568985   0.26689988
H    6.21182775   0.86143970   0.81963968
H    5.97483778   0.60600978  -0.92165965
H    4.29581881   3.88149858  -0.27808991
H    5.82955790   3.15258884  -0.69014972
H    5.38983822   3.35504866   1.01733959

