%chk=mol_5771.chk
# wB97XD/Def2SVP opt pop=full gfinput

C 6 H 11 N 1

1 2
C    1.898211   0.214560   0.361637
C    4.711805  -0.117201  -0.158491
C    5.384340  -2.836214  -0.961039
C    5.268821  -2.834627  -3.858178
C    6.041625  -0.203731  -4.568432
N    4.181095   1.812285  -4.637955
C    5.643176   1.484304  -2.326914
H    1.463971   2.191667   0.794365
H    1.318878  -0.939213   1.979715
H    0.734914  -0.344648  -1.256932
H    5.755955   0.362279   1.565203
H    4.164068  -4.277187  -0.117919
H    7.333706  -3.242600  -0.376112
H    6.544651  -4.254114  -4.652430
H    3.349426  -3.243299  -4.517579
H    7.745420  -0.039665  -5.680781
H    4.829441   3.319757  -5.654873
H    7.048754   2.884554  -1.845280

