%chk=mol_7023.chk
# wB97XD/Def2SVP opt freq pop=full gfinput

C 6 H 13 N 1

1 2
C    1.18662953   0.14279996   0.16879994
C    2.67860889  -0.06094998  -0.09110997
C    2.89012885  -0.81653965  -1.40297949
C    3.38704872   1.26821959  -0.13062996
C    3.84730864   1.92421925   1.15482962
N    4.80190849   1.32074952   0.23245990
C    5.56064796   2.29805899  -0.54263979
H    1.02484965   0.66278976   1.11975956
H    0.66245979  -0.81772965   0.21598992
H    0.72253972   0.74639970  -0.61997974
H    3.08274889  -0.67595977   0.72254974
H    2.49708915  -0.25210992  -2.25687909
H    2.38952899  -1.79056942  -1.37888956
H    3.95664859  -0.98983967  -1.58561933
H    3.03680873   1.91046929  -0.93212968
H    3.70179844   1.39641953   2.08985925
H    3.80573845   3.00432897   1.22921956
H    5.89863777   1.84070933  -1.47811949
H    6.45011759   2.60018921   0.01959999
H    5.00060797   3.20611882  -0.79661971

