%chk=mol_6459.chk
# wB97XD/Def2SVP opt freq pop=full gfinput

C 4 H 6 N 2 S 1

1 2
C    1.02630961  -0.06232998   0.00605000
C    2.50269914   0.09036996  -0.01487999
C    3.21465898   1.27418947   0.00795000
S    4.89470816   0.94597960  -0.03263999
C    4.55510807  -0.73538977  -0.08630997
N    5.53744793  -1.64862943  -0.12959996
N    3.28459883  -1.05206954  -0.06149998
H    0.52369982   0.90951967   0.02311999
H    0.71715975  -0.62316978   0.89320964
H    0.68993974  -0.60542977  -0.88226968
H    2.83930874   2.28653908   0.04482998
H    5.26221800  -2.59236908   0.11461996
H    6.45146751  -1.37618947   0.20617992

