%chk=mol_6752.chk
# wB97XD/Def2SVP opt pop=full gfinput

C 5 H 10 N 2

1 2
C    2.329862  -0.447922  -0.719570
C    4.974496  -0.035867   0.145906
C    7.165123  -1.023136  -1.404331
N    6.734058   1.683822  -1.097270
C    5.932417   3.133638  -3.111737
C    4.210253   5.342974  -2.548390
N    6.594577   2.810854  -5.446002
H    1.105036   1.070039  -0.032825
H    1.614242  -2.233429   0.042802
H    2.167856  -0.534755  -2.780392
H    5.151564  -0.023792   2.184164
H    6.772231  -1.821696  -3.242506
H    8.832164  -1.684785  -0.429346
H    3.936300   5.571366  -0.513514
H    2.377861   5.024782  -3.450167
H    5.041600   7.074398  -3.312501
H    7.855402   1.350361  -5.540205

