%chk=mol_4736.chk
# wB97XD/Def2SVP opt pop=full gfinput

C 5 H 11 N 1 O 1

1 2
C    1.744085  -0.153465  -0.066972
C    4.625785  -0.051986  -0.101686
N    5.645935  -1.526256  -2.248075
C    5.707578   2.689534  -0.116728
O    8.405029   2.502432  -0.105333
C    4.868671   4.304078  -2.321037
C    6.360950   5.362646  -4.073380
H    0.996868   0.945222   1.518830
H    1.084230  -2.104286   0.158775
H    0.914571   0.584700  -1.812436
H    5.328782  -0.982412   1.612484
H    5.076636  -0.698745  -3.898883
H    4.852911  -3.283985  -2.244295
H    5.156061   3.648910   1.634462
H    8.752153   1.019205  -1.155549
H    2.847439   4.667057  -2.442547
H    8.399776   5.124862  -4.034962
H    5.576223   6.523750  -5.570629

