%chk=mol_2162.chk
# wB97XD/Def2SVP opt pop=full gfinput

C 6 H 8 O 1

1 2
C    1.399663  -0.099154   0.004101
C    4.091012   0.813300  -0.041291
C    1.959381   2.654366  -0.418877
C    1.322827   4.646534   1.505167
C    0.608964   6.824897  -0.131260
C    0.811354   6.106367  -2.539074
O    1.595023   3.644223  -2.956609
H    0.611383  -0.669908   1.804481
H    0.726902  -1.189242  -1.593852
H    5.238945   0.343042  -1.670953
H    5.119533   0.861337   1.727399
H    2.949711   5.122273   2.690214
H   -0.266300   4.080845   2.701760
H    0.030311   8.663260   0.526723
H    0.450360   7.179126  -4.228886

