%chk=mol_1615.chk
# wB97XD/Def2SVP opt pop=full gfinput

C 6 H 9 N 1

1 2
C    1.831938   0.070789  -0.386884
N    4.326849   0.988251   0.316397
C    6.542005  -0.576650  -0.743551
C    8.022360   1.996779  -0.194188
C    5.480962   2.920780  -1.531547
C    5.536898   1.714756  -4.071925
C    6.248644  -0.650406  -3.535148
H    0.414474   1.442995   0.236556
H    1.443203  -1.695973   0.617714
H    1.492411  -0.274048  -2.396135
H    7.072433  -2.289819   0.265488
H    8.280005   2.524976   1.794333
H    9.794772   2.303595  -1.215718
H    4.892539   4.885755  -1.357012
H    5.105870   2.557555  -5.873117
H    6.546351  -2.224491  -4.789190

