%chk=mol_4943.chk
# wB97XD/Def2SVP opt freq pop=full gfinput

C 4 H 9 N 1 O 2

1 2
C    1.16085958  -0.38973987   0.46952981
C    2.55050921  -0.24888991  -0.11847995
O    3.08106899   1.01538968   0.28014991
N    4.46904850   1.00470960   0.08036996
C    4.94301796   2.15564942   0.44006982
C    6.42955732   2.42346907   0.39998984
O    7.14083767   1.47035944  -0.36410987
H    0.71366972  -1.34748948   0.19054992
H    0.51019979   0.42006984   0.12460995
H    1.19950950  -0.32327989   1.56187940
H    2.50931907  -0.28909990  -1.21227944
H    3.18988872  -1.06120968   0.24686991
H    4.29880810   2.96133900   0.83525968
H    6.80681753   2.41907907   1.42670941
H    6.59661722   3.41693878  -0.02530999
H    6.61647749   0.64592975  -0.31675988

