%chk=mol_1888.chk
# wB97XD/Def2SVP opt freq pop=full gfinput

C 5 H 10 N 2

1 2
N    0.75534970  -0.05705998  -0.04094999
C    2.19823933  -0.02050999   0.19801992
C    3.11596894  -0.87851965  -0.63143975
C    2.69310904  -1.45995939  -1.94714928
C    2.86021900  -0.30858988  -2.94831896
N    2.73307896   0.94437963  -2.18103909
C    3.13489866   0.61352980  -0.79887968
H    0.39548987   0.89218968  -0.15011995
H    0.25670990  -0.48214981   0.73602974
H    2.47127914   0.11956995   1.24224949
H    3.96325874  -1.36218953  -0.17206994
H    3.31971884  -2.31350899  -2.22562909
H    1.65259945  -1.80003941  -1.91177917
H    3.86566854  -0.35510984  -3.38518858
H    2.13248920  -0.36199984  -3.76300859
H    3.32669878   1.65960932  -2.59498906
H    3.98604846   1.16066957  -0.40548983

