%chk=mol_6875.chk
# wB97XD/Def2SVP opt freq pop=full gfinput

C 7 H 10

1 2
C    0.96074963  -0.01464000  -0.44594982
C    2.24631929  -0.02217999   0.30970988
C    3.46523881   0.74611968  -0.15196994
C    3.69956875   1.19830954  -1.58048940
C    3.84232855  -0.07418998  -2.37569904
C    3.69092870  -1.13368952  -1.56467938
C    3.46359873  -0.77882969  -0.15543994
H    0.38711983   0.88199961  -0.19090992
H    0.36166987  -0.88719970  -0.16714993
H    1.08822954  -0.03049999  -1.53121936
H    2.05147934  -0.02723999   1.37860942
H    4.06718874   1.26785946   0.57890981
H    4.61916828   1.78824937  -1.64848936
H    2.86219907   1.80074930  -1.94530928
H    4.02042866  -0.11396996  -3.43961883
H    3.73766875  -2.16317916  -1.89677930
H    4.07582855  -1.28992951   0.57782978

