%chk=mol_5878.chk
# wB97XD/Def2SVP opt pop=full gfinput

C 4 H 5 N 1 O 2

1 2
N    3.328375  -1.178282   2.049238
C    4.990861  -0.591541   0.148249
O    5.501560  -2.155837  -1.485514
C    6.071445   2.124525   0.264807
O    5.518661   3.294001   2.638681
C    8.822186   2.161204  -0.142448
C   11.067673   2.202816  -0.464022
H    2.644313   0.209892   3.178387
H    2.440884  -2.868510   1.982757
H    5.104812   3.222059  -1.198956
H    6.678141   2.532006   3.847860
H   13.060181   2.230670  -0.765320

