%chk=mol_5901.chk
# wB97XD/Def2SVP opt freq pop=full gfinput

C 4 H 8 N 2 O 1

1 2
N    0.77613974   1.74534929  -0.27811989
N    2.06625915   1.70300937  -0.67795974
C    2.86840892   1.29180956   0.25054991
C    4.37954807   1.18579960  -0.00468000
C    5.06543827   2.28579926  -0.82034969
O    6.09572792   2.44240928   0.18796994
C    5.31963825   1.64526939   1.11308956
H    0.17800993   1.91845930  -1.09124959
H    0.60902977   2.54621911   0.33754987
H    2.51284885   1.00903964   1.25913954
H    4.64013815   0.18315993  -0.36919987
H    4.50505829   3.21623874  -0.95498967
H    5.48124838   1.96326935  -1.77904928
H    5.91921806   0.85499966   1.57323933
H    4.87283802   2.27071929   1.89274931

