%chk=mol_1892.chk
# wB97XD/Def2SVP opt freq pop=full gfinput

C 6 H 11 N 1

1 2
N    1.01926959  -0.00710000  -0.07037997
C    2.47852921  -0.07938997  -0.06582997
C    3.17417884  -0.72858971  -1.21865952
C    3.26114869   0.76948971  -1.04438961
C    4.54154825   1.49298942  -0.63079977
C    5.92366743   0.99961960  -0.98602962
C    5.38736773   2.23680925  -1.63772941
H    0.69648975   0.76555973   0.51134980
H    0.61614978  -0.85290968   0.33168989
H    2.92410874  -0.23030992   0.91526961
H    2.57702923  -1.10185957  -2.04292917
H    4.04867840  -1.32957947  -1.00168967
H    2.64978909   1.34795952  -1.73971939
H    4.45774794   1.98673928   0.33883989
H    6.01993752   0.11226996  -1.60055935
H    6.70628786   1.11164951  -0.24489990
H    5.80402756   3.19212866  -1.34119940
H    5.10916805   2.17847919  -2.68373895

