%chk=mol_5798.chk
# wB97XD/Def2SVP opt freq pop=full gfinput

C 4 H 7 N 1 O 2

1 2
N    1.48254955  -0.12834994   0.21022992
C    2.84603906   0.00215000  -0.04652998
C    3.55063868  -1.27324951  -0.49025980
O    2.79228902  -2.40380907  -0.05659998
C    3.47909880   1.17600954   0.13110995
C    4.91473818   1.41299939  -0.12557995
O    5.42201805   2.50890899   0.08382996
H    0.96458960   0.74813974   0.17543994
H    1.04776967  -0.84890968  -0.37191984
H    4.54772854  -1.36825943  -0.05413998
H    3.62078857  -1.31306958  -1.58137941
H    2.36149907  -2.12330937   0.77414972
H    2.94582891   2.05405927   0.48136982
H    5.50152826   0.57160980  -0.52257979

