%chk=mol_2877.chk
# wB97XD/Def2SVP opt pop=full gfinput

C 6 H 14 O 1

1 2
C    2.521027  -2.350630  -0.015231
C    1.456790   0.322784  -0.127670
C    2.328067   1.939653   2.121728
C    1.540996   4.723824   1.810641
C   -1.305971   5.150846   1.743650
O    1.275546   0.859466   4.369066
C    2.533802   1.609952   6.619333
H    1.883150  -3.440284  -1.654795
H    1.892958  -3.342963   1.688697
H    4.590164  -2.325780  -0.028384
H   -0.608530   0.173137  -0.147115
H    2.047726   1.204077  -1.905203
H    4.398696   1.845960   2.222960
H    2.382359   5.490146   0.078027
H    2.312250   5.836022   3.378263
H   -2.151680   4.314641   0.055482
H   -1.712810   7.179485   1.702965
H   -2.231786   4.351284   3.409085
H    1.733162   0.536021   8.192152
H    2.239760   3.618504   6.996787
H    4.556016   1.189356   6.505741

