%chk=mol_6178.chk
# wB97XD/Def2SVP opt freq pop=full gfinput

C 4 H 7 N 1 O 2

1 2
O    2.21465921  -0.52744979   1.20324957
C    2.20256901   0.03871998  -0.09550996
C    2.80406904   1.41284943  -0.04574998
N    4.04984856   1.64583933  -0.31016988
O    4.25411844   3.03152895  -0.09425997
C    2.96559882   3.65522861  -0.05128998
C    2.02967930   2.58212900   0.43346983
H    3.15313888  -0.63250977   1.44822943
H    1.16879952   0.10294996  -0.44478983
H    2.77002907  -0.60306978  -0.77534968
H    2.71197891   3.99314857  -1.06199956
H    2.99212885   4.52009821   0.61717975
H    1.03234959   2.64769912  -0.00363000
H    1.96920931   2.54443908   1.52481937

