%chk=mol_6789.chk
# wB97XD/Def2SVP opt freq pop=full gfinput

C 6 H 13 N 1

1 2
C    0.88927966  -0.10891996   0.16052994
C    2.40369892  -0.01578999  -0.02908999
C    2.82350874  -0.04769998  -1.50918949
N    2.36113906   1.13580966  -2.23012924
C    3.08847880   1.08096957   0.84536964
C    4.17712831   0.05189998   1.20378959
C    3.17677903  -1.05978966   0.83817965
H    0.62027979  -0.16908994   1.22098958
H    0.48737982  -1.00027955  -0.33331987
H    0.38103986   0.76871967  -0.25107992
H    2.42728925  -0.94676965  -1.99558926
H    3.91453862  -0.09339996  -1.60006940
H    1.34400952   1.12590957  -2.28967905
H    2.69543886   1.09279966  -3.19215870
H    2.49953890   1.40200949   1.71305943
H    3.44663858   1.97289932   0.32454988
H    5.05578804   0.09137997   0.54964978
H    4.51336861   0.06249998   2.24427915
H    3.60245872  -1.91505933   0.30579987
H    2.62136912  -1.43633938   1.70509934

