%chk=mol_0738.chk
# wB97XD/Def2SVP opt pop=full gfinput

C 5 H 6 O 1

1 2
C    1.884170  -0.068503   0.183606
C    4.762110   0.000000   0.000000
C    5.571290  -1.485778  -2.318410
O    7.089818  -0.779550  -3.923015
C    5.672996   2.572238   0.000000
C    6.423746   4.692322   0.000000
H    1.221368   0.898621   1.890085
H    1.190131  -2.018039   0.246231
H    1.001045   0.851567  -1.449420
H    5.544476  -1.011911   1.630758
H    4.769990  -3.408915  -2.446477
H    7.110548   6.585563  -0.022601

