%chk=mol_1686.chk
# wB97XD/Def2SVP opt freq pop=full gfinput

C 6 H 11 N 1

1 2
C    3.01444888  -1.08590961  -0.53805983
N    2.47730899   0.05993998   0.18406993
C    3.25822878   1.27887952  -0.05379998
C    3.20766878   1.81891930  -1.49698937
C    3.34760880   3.29606867  -1.30042958
C    3.10910869   3.64786863  -0.03186999
C    2.77290893   2.45960903   0.81315970
H    2.41770911  -1.97292936  -0.30353987
H    4.04989862  -1.29328954  -0.24965991
H    2.96521878  -0.93987966  -1.62128937
H    2.47698903  -0.14665994   1.18285954
H    4.30904818   1.08504951   0.21324992
H    2.25796914   1.59991932  -1.99586928
H    4.02675867   1.41055954  -2.09771919
H    3.56844878   3.98736858  -2.10173917
H    3.10986876   4.66390848   0.33748987
H    3.29675865   2.48087907   1.77355933
H    1.69379938   2.43162918   0.99956959

