%chk=mol_4150.chk
# wB97XD/Def2SVP opt freq pop=full gfinput

C 4 H 8 N 2 O 1

1 2
C    1.05742955  -0.02118999   0.05686998
C    2.54879904   0.00872000   0.02608999
N    3.28005886  -1.06221962  -0.03633999
N    4.56569862  -0.64413977   0.03997998
C    4.71028852   0.78155971  -0.23305991
C    3.30980873   1.31335950   0.06535997
O    2.86436892   2.24523926  -0.90061969
H    0.69640976  -1.05257964   0.03966998
H    0.66335976   0.51035982  -0.81282973
H    0.70480973   0.46878982   0.96804965
H    5.21126795  -1.23316956  -0.48763981
H    4.99270821   0.95021969  -1.27817941
H    5.46696758   1.23956954   0.41026986
H    3.23005867   1.74388933   1.06846964
H    2.96700883   1.83358932  -1.77716935

