%chk=mol_5750.chk
# wB97XD/Def2SVP opt freq pop=full gfinput

C 5 H 9 N 1 O 1

1 2
N    0.98033965  -0.10675996  -0.01969999
C    2.44655895  -0.01989999   0.04918998
C    2.97738886   1.43281937   0.00000000
C    2.44257903   2.27087927   1.17622960
O    1.02866960   2.44583917   1.10360968
C    4.42138815   1.43281937   0.00000000
C    5.61154795   1.43281937   0.00000000
H    0.70997971  -1.09115958   0.03785999
H    0.67541975   0.19925992  -0.94733959
H    2.86749911  -0.60092980  -0.78085971
H    2.77711892  -0.50677979   0.97522962
H    2.61432910   1.88609934  -0.93220967
H    2.89242887   3.27018857   1.17688954
H    2.68055892   1.80414939   2.13939929
H    0.65888971   1.55195940   0.92776960
H    6.67769766   1.43715954  -0.00047000

