%chk=mol_6934.chk
# wB97XD/Def2SVP opt pop=full gfinput

C 5 H 8 N 2

1 2
C    4.177958  -0.957335  -2.640004
C    4.655907   0.042746   0.011622
C    5.773076   2.628666  -0.004687
N    4.283952   4.674861  -0.007200
N    5.910043   6.621770  -0.024699
C    8.380841   5.893621  -0.031804
C    8.361604   3.300142  -0.017877
H    3.364922  -2.857531  -2.555023
H    5.935328  -1.057774  -3.729733
H    2.860743   0.260499  -3.673004
H    5.929847  -1.251962   1.009076
H    2.875350   0.053536   1.072042
H    5.194460   8.400362  -0.030670
H    9.897932   7.260819  -0.045372
H    9.981023   2.053962  -0.019672

