%chk=mol_2230.chk
# wB97XD/Def2SVP opt freq pop=full gfinput

C 5 H 8 O 2

1 2
C   -1.61334944   0.86401963   0.49202982
C   -1.12065947  -0.35849985  -0.23626991
C   -0.21507992  -1.36282957   0.38331985
O    1.04426956  -1.25007951  -0.27172989
C    1.67658937  -0.00947000   0.04621998
O    0.82624972   1.13868964   0.13033995
C   -0.46858981   0.97131962  -0.47647983
H   -2.56513906   1.28462958   0.19193992
H   -1.39823949   0.96476966   1.54915941
H   -1.71160936  -0.76957971  -1.04416955
H   -0.09707996  -1.22476947   1.46460950
H   -0.59841979  -2.37345910   0.21391991
H    2.19186926  -0.11712996   1.00655961
H    2.43441916   0.18401994  -0.71836978
H   -0.64712977   1.45823944  -1.42872953

