%chk=mol_6384.chk
# wB97XD/Def2SVP opt freq pop=full gfinput

C 4 H 7 N 1 O 2

1 2
O    0.75813973   1.30463958  -0.67455977
N    2.11843920   1.38134956  -0.99271965
C    2.80725908   1.11502969   0.07092997
C    4.31009865   1.16350949   0.03777999
C    4.79220819   2.60386920  -0.05922998
C    4.48419857   3.40662885   1.17988944
O    4.05017853   2.92789888   2.22245908
H    0.33048987   1.55150950  -1.51585948
H    2.32944894   0.88562965   1.04023957
H    4.65335846   0.60068977  -0.83728969
H    4.69381809   0.66706973   0.93523961
H    4.32785845   3.11576867  -0.90944970
H    5.87809753   2.62656903  -0.20083994
H    4.70622826   4.48478842   1.10598958

