%chk=mol_6348.chk
# wB97XD/Def2SVP opt pop=full gfinput

C 4 H 7 N 1 O 2

1 2
O    1.689793   2.158842  -1.966770
N    4.229944   1.445924  -2.161488
C    5.470946   2.445381  -0.314318
C    8.204983   1.938500  -0.138309
C    9.948785   2.598884  -2.295091
C   10.003019   4.136440   0.080842
O   12.142303   3.728070   1.692288
H    0.928309   1.294462  -3.406477
H    4.590995   3.647228   1.146440
H    8.667361   0.253129   0.934318
H    9.131024   3.440228  -3.974566
H   11.502876   1.320767  -2.673244
H    9.224792   6.032951  -0.004403
H   13.603780   4.679642   1.108419

