%chk=mol_4287.chk
# wB97XD/Def2SVP opt pop=full gfinput

C 4 H 4 N 2 O 1

1 2
C    5.249300  -2.050712   0.725334
C    4.285162   0.228449   0.181130
C    5.670123   2.534085   0.023981
N    4.676335   4.802248  -0.523265
O    6.762933   6.414618  -0.446864
C    8.782766   4.947889   0.136495
N    8.232308   2.555496   0.447317
H    4.046622  -3.708795   0.803908
H    7.251711  -2.305164   1.101880
H    2.267615   0.369574  -0.178863
H   10.590044   5.879448   0.280908

