%chk=mol_6345.chk
# wB97XD/Def2SVP opt freq pop=full gfinput

C 4 H 6 N 2 O 1

1 2
O    1.07952952   0.08878997  -0.35776988
N    2.40511918   0.00057000   0.08346996
C    2.98452902   1.15784967   0.07975997
N    4.27781820   1.33823943   0.49479982
C    4.56565809   2.74255896   0.65409976
C    3.33259869   3.35175872   0.05215998
C    2.39510918   2.45907927  -0.29992989
H    0.79151970  -0.84165967  -0.32300988
H    4.63902855   0.66427976   1.15547955
H    5.46527815   3.02427888   0.10163996
H    4.66574812   3.01518869   1.70815933
H    3.21930885   4.41932821  -0.07169998
H    1.42090952   2.60878897  -0.72663975

