%chk=mol_1385.chk
# wB97XD/Def2SVP opt pop=full gfinput

C 6 H 11 N 1

1 2
C    2.273624   0.287446   0.259176
C    4.969337  -0.562817  -0.154466
C    5.237452  -2.928263  -1.719159
N    4.083302  -5.082456  -0.447241
C    6.880625   0.821880   0.805666
C    9.554984   0.328964   0.577085
C   11.314358   1.830786   1.606097
H    2.164436   2.091284   1.269121
H    1.225525  -1.106170   1.371714
H    1.315760   0.538685  -1.557834
H    7.204335  -3.390509  -2.140455
H    4.305722  -2.640684  -3.546185
H    4.995226  -5.359584   1.226999
H    4.394256  -6.665555  -1.494017
H    6.401504   2.509197   1.886816
H   10.187211  -1.319558  -0.466214
H   10.828962   3.510639   2.677307
H   13.307470   1.397320   1.390857

