%chk=mol_6342.chk
# wB97XD/Def2SVP opt freq pop=full gfinput

C 4 H 7 N 1 O 2

1 2
O    1.13658953   0.09501997   0.57547981
N    2.32578921   0.02288999  -0.15790994
C    2.95296884   1.15781963  -0.12912996
C    2.52525902   2.40011930   0.57376981
C    3.37719893   3.38904881  -0.18975993
O    4.60491848   2.70990896  -0.48928982
C    4.26601839   1.35350955  -0.83015972
H    0.76773971  -0.80194968   0.46683982
H    2.83117890   2.32779908   1.62180936
H    1.45820951   2.61237907   0.49535984
H    2.90443873   3.68290854  -1.13497961
H    3.58826852   4.29197884   0.38965985
H    4.14830875   1.25953948  -1.91243935
H    5.03308821   0.67587978  -0.45058984

