%chk=mol_2369.chk
# wB97XD/Def2SVP opt freq pop=full gfinput

C 6 H 8 O 1

1 2
C    0.98370963  -0.07048997   0.21182992
C    2.46986914   0.07820997  -0.07006997
C    3.19960880   1.14329958   0.77033973
C    4.08613825  -0.01387000   1.22116947
O    3.22039866  -0.98229963   0.58323979
C    2.77423882   0.09043996  -1.48948944
C    3.03382897   0.09572996  -2.66166902
H    0.78880972  -0.15343994   1.28698945
H    0.57489979  -0.96895963  -0.26480991
H    0.42341983   0.79490972  -0.15964994
H    2.60810900   1.59352946   1.57341945
H    3.71903849   1.93274927   0.21982992
H    5.09032822  -0.03381999   0.78698975
H    4.14323854  -0.16722994   2.30196905
H    3.26956868   0.08932997  -3.70161867

