%chk=mol_4880.chk
# wB97XD/Def2SVP opt freq pop=full gfinput

C 4 H 7 N 1 O 2

1 2
C    0.84952962   0.34815985   0.73944968
C    1.80021930   1.32329941   0.10908996
O    2.38843894   0.99006963  -1.07318962
C    2.00404930  -0.14331995  -1.79756927
C    2.89521885  -0.89229965  -2.44936895
N    2.04689932   2.45123887   0.70628971
O    2.95846891   3.22162890  -0.03009999
H    0.59469980   0.67856973   1.75164926
H    1.31068957  -0.64012980   0.81557965
H   -0.07466997   0.29500988   0.15817994
H    0.93696964  -0.30839989  -1.82813931
H    3.95354843  -0.65522981  -2.41272926
H    2.58303881  -1.74733937  -3.03801894
H    3.05577874   4.01896858   0.52172983

