%chk=mol_1846.chk
# wB97XD/Def2SVP opt freq pop=full gfinput

C 5 H 6 N 2

1 2
C    2.84728909  -1.04074967   0.39303985
N    2.25403905   0.09132997   0.24510990
N    3.02214885   1.20714962   0.14849995
C    2.45992899   2.45377922  -0.00550000
C    3.45419884   3.40088868  -0.07616997
C    4.68149853   2.71488905   0.03775999
C    4.38943863   1.37313950   0.17394993
H    2.22948933  -1.95024931   0.47168982
H    3.93442845  -1.20503962   0.45182985
H    1.38354945   2.54906917  -0.05064998
H    3.30747867   4.46673822  -0.19667993
H    5.67361784   3.14724874   0.02247999
H    5.06454849   0.54001981   0.28529990

