%chk=mol_3040.chk
# wB97XD/Def2SVP opt freq pop=full gfinput

C 5 H 10 O 2

1 2
C    1.20024955  -0.22004992  -0.53812981
C    2.67909884  -0.24479991  -0.17750993
C    3.13833880   1.04728961   0.50603980
O    2.39695907   1.23520958   1.71074927
C    4.61201859   1.00516963   0.79866970
C    5.22480774   1.70344937   1.98650932
O    4.97014809   0.28904986   1.99049926
H    0.92055964  -1.14974952  -1.04410958
H    0.97527963   0.61369979  -1.21055961
H    0.57380980  -0.12301995   0.35399988
H    3.26856875  -0.41647986  -1.08614957
H    2.85598898  -1.10003960   0.48687983
H    2.93195891   1.90524924  -0.14282995
H    2.73284888   0.56617981   2.33624911
H    5.22150803   0.87060964  -0.08543997
H    4.59932804   2.33119917   2.60950899
H    6.25741768   2.02242923   1.92011929

