%chk=mol_1840.chk
# wB97XD/Def2SVP opt freq pop=full gfinput

C 4 H 7 N 3

1 2
C    1.03306961  -0.29036990  -0.33971989
N    2.30760932   0.04233998   0.25069991
C    2.95564890   1.24540961   0.06748998
N    2.57199883   2.44880915  -0.12603995
C    1.16165960   2.77733898  -0.11627995
C    4.41994858   1.19403958   0.10124996
N    5.57644749   1.07055962   0.13118994
H    0.85318965  -1.36555946  -0.23961991
H    1.01767957  -0.04553998  -1.40606952
H    0.21266991   0.22261992   0.16791995
H    2.93179893  -0.76018971   0.30624989
H    1.05128968   3.86637855  -0.09354996
H    0.65621972   2.39031911   0.77396971
H    0.66194975   2.42146921  -1.02193964

