%chk=mol_6029.chk
# wB97XD/Def2SVP opt freq pop=full gfinput

C 4 H 4 N 2 O 1

1 2
O    1.07784963  -0.02221999   0.45164984
C    2.26275921  -0.04269999   0.18827994
C    3.31517887   1.03663957  -0.08480997
N    4.24517822  -0.05338998  -0.43046984
C    3.32952857  -1.12991953   0.03638998
C    3.01933885  -2.10210919  -0.98604965
N    2.80904889  -2.87182903  -1.83032930
H    3.59955859   1.60641944   0.80355966
H    3.07058883   1.71121943  -0.90807962
H    4.45987844  -0.09852996  -1.43023944
H    3.62761879  -1.56396949   0.99653959

