%chk=mol_1927.chk
# wB97XD/Def2SVP opt freq pop=full gfinput

C 6 H 9 N 1

1 2
N    0.96518964  -0.00989000  -0.28568989
C    2.40672898  -0.00412000  -0.07907997
C    2.79581904   1.25692952   0.64329976
C    3.41954851   1.27001953   1.83370936
C    3.78466868   0.02039999   2.58467913
C    3.42861867  -1.24338949   1.85236931
C    2.80432892  -1.25163949   0.66120970
H    0.71230972  -0.83075970  -0.82942969
H    0.70923972   0.79321975  -0.85381967
H    2.90733886  -0.00961000  -1.05437958
H    2.56141901   2.20073915   0.16034994
H    3.67026877   2.21864915   2.30022907
H    4.86393833   0.02515999   2.77597904
H    3.27575898   0.02523999   3.55367851
H    3.68587875  -2.18298912   2.33166909
H    2.57690907  -2.20410919   0.19206993

