%chk=mol_1500.chk
# wB97XD/Def2SVP opt pop=full gfinput

C 6 H 11 N 1

1 2
C    1.679419   0.250880  -0.062985
C    4.578598   0.050342   0.036396
N    5.230233  -1.510685   2.223206
C    5.489428  -1.377856  -2.274115
C    7.134453  -0.634305  -4.053897
C    5.658785   2.701628   0.235271
C    7.144015   3.684512   2.042945
H    1.051916   1.310279  -1.731462
H    0.924549   1.220782   1.606796
H    0.781912  -1.616642  -0.152482
H    4.616620  -0.630904   3.817776
H    7.147927  -1.605870   2.340690
H    4.690149  -3.267601  -2.476543
H    8.053881   1.196839  -4.012815
H    7.615256  -1.885266  -5.608348
H    5.125788   3.956803  -1.310997
H    7.785880   2.607879   3.663291
H    7.765905   5.636827   1.922721

