%chk=mol_5192.chk
# wB97XD/Def2SVP opt freq pop=full gfinput

C 5 H 9 N 1 O 1

1 2
C    1.42077947  -0.62408978  -0.18008992
N    2.82691884  -0.34274989  -0.05834998
C    3.34266877   0.86361969  -0.46343982
O    2.69058895   1.75826931  -0.98403960
C    4.79566813   1.02286959  -0.17799993
C    5.55276775   2.23384905  -0.67194974
C    5.24996805   2.08990932   0.79085976
H    1.26382947  -1.69437933  -0.02848999
H    1.06409955  -0.33077988  -1.17128956
H    0.88043964  -0.05727998   0.58269978
H    3.40644884  -0.96669960   0.48559982
H    5.35872841   0.09413997  -0.17211993
H    5.00912809   2.98784900  -1.23173952
H    6.57567739   2.09250927  -1.00008965
H    6.06958771   1.85602927   1.45955944
H    4.50294828   2.75274897   1.21479952

