%chk=mol_3144.chk
# wB97XD/Def2SVP opt pop=full gfinput

C 6 H 10 O 1

1 2
C    2.597561   5.460477   0.003042
C    4.973287   4.721197  -0.389284
O    5.988013   2.711606   0.884770
C    8.575010   2.232182   0.174648
C   10.617048   4.010396   1.304894
C   12.316498   1.669176   1.608421
C    9.883835   0.073983   1.664376
H    1.803611   7.052137  -1.013214
H    1.404293   4.480125   1.352099
H    6.207845   5.659824  -1.721559
H    8.772392   1.952578  -1.876007
H   10.072524   4.894580   3.097394
H   11.341909   5.465220   0.029877
H   13.519403   1.294632  -0.035262
H   13.471385   1.609801   3.318945
H    9.998239  -1.744104   0.689996
H    9.117210  -0.228166   3.565101

