%chk=mol_2419.chk
# wB97XD/Def2SVP opt pop=full gfinput

C 5 H 6 O 2

1 2
C    2.124732  -0.128426   0.287579
C    4.608966   0.044711  -0.115972
C    6.051886   2.470704  -0.133660
C    8.478502   1.497532  -1.164600
O   10.279203   2.848516  -1.721503
C    8.484379  -1.321731  -1.385812
O    6.008687  -2.102377  -0.636120
H    1.183139  -1.951955   0.242565
H    0.973662   1.525557   0.665524
H    6.343546   3.204635   1.772431
H    5.231461   3.870669  -1.407997
H    8.818048  -1.898438  -3.339789
H    9.875085  -2.144763  -0.100552

