%chk=mol_5463.chk
# wB97XD/Def2SVP opt pop=full gfinput

C 4 H 9 N 1 O 2

1 2
C    7.606072  -3.462507  -0.907106
O    9.574618  -1.914916   0.069844
N    9.851048   0.189577  -1.518622
C   11.605224   1.683633  -0.694966
C   13.214458   1.289946   1.605795
O   12.258842   3.847293  -1.921757
C   10.859784   4.416517  -4.165391
H    7.286992  -5.022231   0.409126
H    8.157986  -4.238145  -2.742484
H    5.854617  -2.376954  -1.088161
H   12.060213   0.646041   3.193070
H   14.131542   3.057161   2.161998
H   14.668130  -0.116464   1.184783
H   11.504653   6.249929  -4.867972
H    8.838268   4.553427  -3.752032
H   11.225596   2.992514  -5.619346

