%chk=mol_6099.chk
# wB97XD/Def2SVP opt freq pop=full gfinput

C 5 H 9 N 1 O 1

1 2
O    1.16296959   0.01529999  -0.72825974
C    2.16406918   0.09227996  -0.01812999
C    3.05596876   1.31697953   0.06446998
C    2.29840922   2.62101912  -0.10389996
C    3.11194873   3.63970852   0.68188971
C    4.09254837   2.82431889   1.51117933
N    3.62689853   1.44062948   1.41767943
H    2.52857900  -0.79908973   0.51909983
H    3.86210871   1.21502948  -0.67120975
H    1.28510952   2.55748916   0.31234989
H    2.20220923   2.90585899  -1.15668952
H    3.64807868   4.31626844   0.00741000
H    2.45518899   4.24684811   1.31488955
H    5.10245800   2.91086888   1.09348965
H    4.12572861   3.16049886   2.55144906
H    4.40807819   0.79862970   1.54707944

