%chk=mol_6929.chk
# wB97XD/Def2SVP opt freq pop=full gfinput

C 6 H 5 N 1

1 2
C    0.92572963   0.05310998  -0.00432000
C    2.12642908   0.02171999  -0.00125000
C    3.55003858  -0.01851999   0.00250000
C    4.37216854   1.08530951   0.00504000
N    5.67010784   0.64207971   0.00855000
C    5.68328762  -0.72949970   0.00824000
C    4.37594843  -1.16655958   0.00458000
H   -0.13816994   0.08008996  -0.00697000
H    4.14889860   2.14359927   0.00469000
H    6.49023771   1.23507953   0.01100000
H    6.61757755  -1.27467954   0.01077000
H    4.05425835  -2.19968915   0.00333000

