%chk=mol_5317.chk
# wB97XD/Def2SVP opt freq pop=full gfinput

C 5 H 9 N 1 O 1

1 2
C    4.22447872  -0.97175962  -0.32140988
O    3.13307881  -0.05857998  -0.29142991
C    3.43295884   1.26589954  -0.13763995
C    4.62966871   1.85999930  -0.00233000
C    4.83802795   3.29991889   0.14909995
C    4.61497831   3.93921852   1.49497950
N    5.96127748   3.71636868   0.98314965
H    3.81698847  -1.97938919  -0.44503984
H    4.78345823  -0.94643962   0.61962974
H    4.88191795  -0.76666975  -1.17274952
H    2.50882912   1.83470929  -0.13548996
H    5.53476810   1.25983953  -0.00893000
H    4.65854836   3.89519858  -0.74031973
H    4.31640816   3.31786871   2.33036900
H    4.26881838   4.96418810   1.52966940
H    6.36671734   4.58471823   0.63095975

