%chk=mol_0160.chk
# wB97XD/Def2SVP opt pop=full gfinput

C 4 H 5 N 1

1 2
C    1.863346   0.028006  -0.012359
C    4.697614  -0.000132  -0.005953
C    5.985897  -2.188643   0.009751
C    6.029568   2.347966  -0.011773
N    7.106977   4.256797  -0.015175
H    1.120683   1.959797   0.041423
H    1.118793  -0.971055   1.640320
H    1.130170  -0.876190  -1.723638
H    5.016429  -3.997413   0.014910
H    8.040105  -2.233449   0.015911

