%chk=mol_3321.chk
# wB97XD/Def2SVP opt pop=full gfinput

C 6 H 12 O 1

1 2
C    2.861839  -1.043828  -1.750038
O    4.222763  -0.029971   0.329096
C    5.721221   2.223149  -0.107091
C    7.997491   1.624673  -1.775247
C    4.218398   4.650332  -0.832802
C    5.859134   6.144407   1.041504
C    6.450675   3.630712   2.377427
H    1.564107  -2.485425  -1.036912
H    4.160005  -1.935306  -3.087416
H    1.760072   0.423072  -2.700929
H    9.264534   3.250707  -1.966884
H    7.406120   1.084174  -3.682661
H    9.098125   0.063646  -0.976667
H    2.215080   4.588274  -0.305002
H    4.361582   5.256405  -2.803768
H    7.513003   7.039211   0.175329
H    4.862095   7.548908   2.181689
H    8.403537   3.415850   3.019064
H    5.188640   3.222361   3.969615

