%chk=mol_4711.chk
# wB97XD/Def2SVP opt freq pop=full gfinput

C 4 H 9 N 1 O 2

1 2
C    1.80695927  -0.66750973   0.35523987
C    1.94493926   0.19281992  -0.89788967
N    0.80276972  -0.05061998  -1.80353928
C    2.01246929   1.68108940  -0.54431981
C    2.35531902   2.55873895  -1.72708941
O    1.73095942   2.20991921  -2.87497878
O    3.06876874   3.54814863  -1.64388931
H    2.66926908  -0.52771980   1.01591957
H    1.75547934  -1.73117936   0.09787997
H    0.90448970  -0.41199985   0.92184967
H    2.86031890  -0.09457996  -1.42899954
H   -0.06855997   0.00762000  -1.26364946
H    0.83548969  -1.03231966  -2.10240912
H    2.79749894   1.83405936   0.20660992
H    1.06866956   2.03824925  -0.11583996
H    1.20192945   1.37921941  -2.75109887

