%chk=mol_6586.chk
# wB97XD/Def2SVP opt pop=full gfinput

C 3 H 7 N 1 O 2 S 1

1 2
C    1.856826   0.060301   0.039684
N    4.628393  -0.014967   0.101592
C    5.842334   1.878255   1.822735
C    8.041182   0.067841   2.433646
S    5.965185  -2.449350   1.709654
O    4.402325  -3.125777   3.842040
O    7.030348  -4.228961  -0.054726
H    1.136595  -1.544227  -1.045680
H    1.248202   1.793445  -0.910111
H    1.027822   0.041234   1.932453
H    4.673973   2.375858   3.460750
H    6.388408   3.612230   0.840286
H    9.649093   0.171209   1.139259
H    8.695594   0.090253   4.390986

