%chk=mol_6866.chk
# wB97XD/Def2SVP opt freq pop=full gfinput

C 5 H 6 N 2

1 2
C    1.00727963  -0.00701000  -0.07492997
C    2.49570918  -0.03160999   0.07080997
N    3.14923882   1.14577961   0.06322998
C    4.48861837   1.08642948   0.18689993
C    5.18899822  -0.08920997   0.31325990
C    4.42854834  -1.23364961   0.30599988
N    3.08779883  -1.23587954   0.18573993
H    0.62595975   1.01896954  -0.05177998
H    0.54076982  -0.56656981   0.74192971
H    0.71949977  -0.46351981  -1.02701962
H    4.99752808   2.04619932   0.18050992
H    6.26458788  -0.11176996   0.41093984
H    4.88721800  -2.21362925   0.39899984

