%chk=mol_1595.chk
# wB97XD/Def2SVP opt freq pop=full gfinput

C 5 H 10 N 2

1 2
C    3.95083857  -1.91205931  -1.15596950
C    4.18157864  -0.43327984  -1.12057948
N    5.22029829   0.05613998  -0.52438980
N    5.27778769   1.41114950  -0.57013977
C    6.46336746   2.01438928   0.04118998
C    6.42101765   3.50384879  -0.12974995
C    6.40549755   4.38515854   0.88043964
H    2.98747897  -2.12943912  -0.68839973
H    4.74441814  -2.44544888  -0.62762982
H    3.91659856  -2.23988914  -2.19755936
H    3.42901874   0.19916992  -1.62585938
H    4.45467854   1.83318925  -0.13400994
H    7.36797762   1.63244939  -0.44718981
H    6.51672745   1.74007940   1.10164964
H    6.41746759   3.87082863  -1.15297961
H    6.41645765   4.06421852   1.91755927
H    6.38279772   5.45208788   0.68428975

