%chk=mol_0524.chk
# wB97XD/Def2SVP opt pop=full gfinput

C 4 H 4 N 2

1 2
N    1.789325  -0.209760   0.004214
C    4.196137  -0.059281  -0.002721
C    5.800647   2.204498  -0.003061
C    8.195308   1.420904  -0.011792
C    7.975079  -1.319690  -0.016516
N    5.688340  -2.158653  -0.011319
H    1.000742   1.550974   0.010034
H    5.098273   4.109342   0.002778
H    9.916376   2.494817  -0.014834
H    9.686282  -2.496763  -0.023962

