%chk=mol_3083.chk
# wB97XD/Def2SVP opt pop=full gfinput

C 6 H 12 O 1

1 2
C    6.260134  -2.270733  -1.478257
C    4.941199  -0.371180   0.225029
C    5.844507   2.354580  -0.160249
O    4.351245   3.979801   1.402422
C    8.673182   2.841713   0.334198
C    9.570234   2.085691   2.931475
C   10.461391   3.717507   4.651410
H    5.422229  -4.146021  -1.233216
H    8.272730  -2.421212  -1.033264
H    6.066909  -1.740324  -3.467950
H    5.151979  -0.935641   2.207824
H    2.900295  -0.446712  -0.140766
H    5.437158   2.909460  -2.114641
H    4.865591   3.685552   3.144693
H    9.043833   4.862435   0.044938
H    9.814387   1.826704  -1.065106
H    9.525694   0.084131   3.398200
H   10.577458   5.729347   4.272161
H   11.111042   3.062774   6.484539

