%chk=mol_4180.chk
# wB97XD/Def2SVP opt freq pop=full gfinput

C 4 H 8 N 2 O 1

1 2
C    0.93771970   0.23771991  -0.17739993
C    2.38388896   0.23586991   0.16798992
O    3.11528873  -0.87106967  -0.36738986
C    3.44132876   0.43251985  -0.88955969
C    4.78734827   0.89974970  -0.51791984
N    5.37450790   1.74118924  -1.30738950
N    6.60774708   2.10016918  -0.88196969
H    0.51765978   1.23781955  -0.03321999
H    0.39467984  -0.45691985   0.47124982
H    0.76171970  -0.05940998  -1.21660948
H    2.58106899   0.53444982   1.18830955
H    3.12156892   0.65342981  -1.90055931
H    5.23844814   0.51750982   0.41567987
H    7.25860739   1.31081951  -0.91696966
H    6.99724722   2.79648900  -1.52305937

