%chk=mol_6046.chk
# wB97XD/Def2SVP opt freq pop=full gfinput

C 4 H 8 N 2 O 1

1 2
O    1.35021949   0.14117993   0.84951967
C    2.40129900   0.06146998   0.21534993
C    3.10115886  -1.27995956  -0.04960998
N    3.99641848  -1.26871955  -1.22785962
C    4.89577818  -0.11254995  -1.16588950
C    4.08075857   1.18379951  -1.18883955
N    3.05472875   1.20666957  -0.16901994
H    2.32885909  -2.03841925  -0.21313992
H    3.66683865  -1.54632938   0.85049969
H    4.54188871  -2.12945914  -1.22748947
H    5.51134777  -0.16324994  -0.25944990
H    5.57414818  -0.13178995  -2.02518916
H    4.72797823   2.05189919  -1.03073967
H    3.57819867   1.30245948  -2.15563917
H    2.52102900   2.05312920  -0.01808999

