%chk=mol_0433.chk
# wB97XD/Def2SVP opt pop=full gfinput

C 5 H 11 N 1

1 2
C    3.356456  -2.511729   0.936624
C    6.185130  -2.046082   1.147536
N    6.882496   0.165049  -0.352339
C    9.584464   0.681246  -0.156753
C   10.210738   2.920515  -1.768538
C   11.266339   5.059062  -0.918086
H    2.824479  -4.175047   2.045534
H    2.798420  -2.849953  -1.027217
H    2.274796  -0.898338   1.650562
H    7.194093  -3.722137   0.467102
H    6.677480  -1.761244   3.139723
H    5.916128   1.704609   0.287295
H   10.677160  -0.938703  -0.844556
H   10.120730   1.021208   1.815819
H    9.775554   2.749816  -3.771307
H   11.740453   5.317746   1.060344
H   11.672744   6.605840  -2.203118

