%chk=mol_5339.chk
# wB97XD/Def2SVP opt freq pop=full gfinput

C 5 H 9 N 1 O 1

1 2
C    1.90817928  -0.80764973   1.53302932
O    3.14609861  -0.15026994   1.29070950
C    3.01647902   1.09556961   0.58722979
C    2.43043900   2.16985917   1.50557935
C    4.42335844   1.47229946   0.10539996
C    4.39565849   2.59346914  -0.84003967
N    4.36400843   3.48197865  -1.58379948
H    2.12515903  -1.80787933   1.91845930
H    1.33098948  -0.90974963   0.60908973
H    1.32662952  -0.27303991   2.28866911
H    2.36134911   0.95011961  -0.28175989
H    3.01208878   2.25135899   2.43016911
H    1.40571940   1.92026925   1.79774928
H    2.40175915   3.14940882   1.01933968
H    4.88575792   0.60258979  -0.37812984
H    5.06517792   1.70898938   0.96266961

