%chk=mol_4010.chk
# wB97XD/Def2SVP opt freq pop=full gfinput

C 4 H 6 N 2 O 1

1 2
C    0.97641969  -0.00131000  -0.00805000
C    2.45610905   0.05197998  -0.00068000
C    3.28113890   1.11078954   0.00506000
N    4.57567835   0.65755975   0.01104000
C    4.57855844  -0.74309975   0.00921000
O    5.54019785  -1.48751938   0.01325999
N    3.22196865  -1.09063959   0.00171000
H    0.54216981   1.00379968  -0.00462000
H    0.60620975  -0.53136981   0.87529969
H    0.61478978  -0.52177978  -0.90059966
H    3.04400873   2.16353917   0.00537000
H    5.41719770   1.21288955   0.01615999
H    2.89454889  -2.04404926  -0.00107000

