%chk=mol_6567.chk
# wB97XD/Def2SVP opt pop=full gfinput

C 3 H 8 O 3 S 1

1 2
C    1.950878  -0.174781   0.148589
C    4.793555   0.136703  -0.184475
O    5.545250  -1.063387  -2.513090
S    5.743936   3.438073   0.154542
C    5.207065   4.725033  -2.897536
O    4.015819   4.695459   1.875497
O    8.447397   3.535148   0.608284
H    1.321637   0.490195   2.002278
H    1.412627  -2.163358  -0.050267
H    0.914609   0.876436  -1.302248
H    5.770090  -0.861772   1.343350
H    4.251449  -0.750561  -3.778413
H    6.404565   3.748007  -4.262806
H    5.698942   6.728786  -2.843546
H    3.213876   4.505617  -3.378244

