%chk=mol_2023.chk
# wB97XD/Def2SVP opt freq pop=full gfinput

C 5 H 12 N 2

1 2
N    2.04484916   2.65935898  -2.59577918
C    3.33659863   2.74566889  -1.91223919
C    3.54265881   1.55393946  -0.97152960
C    4.87917805   1.62253940  -0.25006989
N    4.98755789   2.66412902   0.78556973
C    5.60598803   0.32213986   0.00510000
C    6.12343788   1.27500951  -1.03260958
H    1.93382931   3.47888851  -3.19156885
H    1.29782951   2.71220899  -1.90409923
H    3.38618875   3.68801880  -1.35562956
H    4.13228846   2.77071881  -2.66396904
H    3.47138882   0.62249976  -1.54943943
H    2.73723912   1.51824939  -0.22590990
H    5.92479753   2.68974900   1.18662953
H    4.36231852   2.45256901   1.56351948
H    5.15696812  -0.60327977  -0.33970988
H    6.18036795   0.20817992   0.91752964
H    7.03853750   1.81569934  -0.82181972
H    6.01863766   0.99337959  -2.07435918

