%chk=mol_4818.chk
# wB97XD/Def2SVP opt pop=full gfinput

C 5 H 9 N 1 O 1

1 2
C    2.726459   5.918925  -0.728848
C    5.093246   5.071685  -0.900133
O    5.887782   3.015323   0.452325
C    8.512007   2.424519  -0.005612
C   10.528118   4.035907   1.364874
N   11.990199   1.701623   1.873777
C    9.615625   0.241072   1.589449
H    2.104210   7.545903  -1.807221
H    1.367500   4.994244   0.497225
H    6.486296   5.955226  -2.107479
H    8.902254   2.151472  -2.029755
H    9.860175   4.981620   3.083220
H   11.511040   5.421813   0.187196
H   13.295149   1.303382   0.510226
H    9.831584  -1.562048   0.601481
H    8.636653  -0.100496   3.383328

