%chk=mol_0232.chk
# wB97XD/Def2SVP opt freq pop=full gfinput

C 5 H 9 N 1

1 2
C    0.42275983   1.32660949   0.26288989
C   -1.05768967   1.05755961  -0.05348998
C   -1.40026939  -0.40417987  -0.00457000
C   -0.43668985  -1.33624947   0.04593998
C    1.02685964  -1.00131965   0.02470999
N    1.30922949   0.37045985  -0.40648985
H    0.67726970   2.34131908  -0.06273998
H    0.58969980   1.29137957   1.34705949
H   -1.30231953   1.43718946  -1.05258954
H   -1.68086934   1.60076928   0.66575974
H   -2.44736910  -0.69004971  -0.01461000
H   -0.70380974  -2.38784909   0.09697996
H    1.44406950  -1.17579961   1.02351964
H    1.53606951  -1.68453944  -0.66324973
H    2.27816916   0.59177977  -0.18690993

