%chk=mol_6249.chk
# wB97XD/Def2SVP opt pop=full gfinput

C 5 H 7 N 1 O 1

1 2
O    5.359074   4.467464  -4.229680
C    4.252470   3.965080  -2.252119
C    5.457548   2.689968   0.020485
N    8.195232   2.360249  -0.285481
C    9.573334   4.720082   0.119846
C   12.296921   4.251147  -0.148325
C   14.520788   3.868931  -0.369234
H    2.219502   4.380555  -2.043323
H    4.576293   0.827020   0.203127
H    5.005526   3.771515   1.725358
H    8.538066   1.795580  -2.103870
H    9.200547   5.442657   2.024785
H    8.993415   6.175871  -1.232309
H   16.494381   3.515514  -0.566445

