%chk=mol_3691.chk
# wB97XD/Def2SVP opt freq pop=full gfinput

C 6 H 6 O 1

1 2
O    0.82704973   0.36159986  -0.03505998
C    2.04004931   0.21188992  -0.03839998
C    2.93062901   1.34418941  -0.00131000
C    3.68465877   2.27748919   0.02547999
C    4.59622812   3.38392878   0.05356998
C    4.75563812   4.21601820  -1.19194949
C    4.04632854   4.78477812   0.00227000
H    2.52732897  -0.77527970  -0.06984998
H    5.48745823   3.23686886   0.65721971
H    4.15922832   3.97514844  -2.06512928
H    5.74542809   4.59213829  -1.42440951
H    4.55487871   5.54914808   0.57886982
H    2.97291899   4.92482805  -0.06406997

