%chk=mol_7075.chk
# wB97XD/Def2SVP opt pop=full gfinput

C 7 H 10

1 2
C    2.016773  -0.241469  -0.091179
C    4.765360   0.322501   0.112174
C    5.879902   2.546066  -0.427267
C    8.696047   2.339368  -0.049908
C    9.133802  -0.366475   0.779531
C    8.550199  -2.579533  -0.917575
C    6.572789  -1.650109   0.899888
H    1.716797  -2.141286  -0.861413
H    1.060458   1.098101  -1.338436
H    1.126768  -0.148967   1.775870
H    4.929464   4.238694  -1.055431
H    9.711151   2.746377  -1.803441
H    9.315915   3.657527   1.417578
H   10.445045  -0.590804   2.326310
H    9.457910  -4.367610  -0.503461
H    8.283898  -2.236472  -2.921158
H    6.118669  -2.751876   2.561259

