%chk=mol_6535.chk
# wB97XD/Def2SVP opt freq pop=full gfinput

C 4 H 4 N 2 S 1

1 2
C    2.82055879  -1.06507969   0.38228983
C    2.26207900   0.12336995   0.10900996
C    2.94746876   1.37631953   0.01215000
N    2.32356930   2.52629900  -0.26480991
S    3.49034882   3.71936870  -0.27986991
C    4.75345802   2.62394905   0.08432997
N    4.32684851   1.38679945   0.21751992
H    2.21598935  -1.96360922   0.43477982
H    3.88778853  -1.16267967   0.55802977
H    1.18879962   0.15957993  -0.05784998
H    5.78808784   2.91679907   0.19293992

