%chk=mol_6576.chk
# wB97XD/Def2SVP opt freq pop=full gfinput

C 3 H 5 N 1 O 2 S 1

1 2
C    0.98205966  -0.05527998   0.01020000
C    2.49054909   0.08146997   0.00199000
S    2.98010898   1.79120934  -0.00339000
O    2.73913884   2.41605926  -1.28477955
O    2.75302887   2.42053914   1.27745962
C    4.77984810   1.73816943  -0.01330000
N    5.94194794   1.64622939  -0.01950999
H    0.69461977  -1.11098957   0.01341000
H    0.53960979   0.41786984  -0.87243968
H    0.54895979   0.42074984   0.89589971
H    2.91206884  -0.38679984  -0.89210969
H    2.92158890  -0.38387984   0.89312965

