%chk=mol_4978.chk
# wB97XD/Def2SVP opt pop=full gfinput

C 4 H 6 N 2 O 1

1 2
C    1.916749   0.037624   0.081296
N    4.587556   0.011811  -0.548474
N    6.042834   2.082856   0.193338
C    8.553127   1.323470   0.263125
O   10.428170   2.643065   0.380742
C    8.546437  -1.468695   0.089308
C    6.126889  -2.063883  -0.367023
H    1.143454   1.951936  -0.050928
H    1.605228  -0.660516   2.009667
H    0.868291  -1.164355  -1.236164
H    5.618496   3.850204  -0.412017
H   10.180578  -2.653856   0.304624
H    5.341065  -3.941685  -0.549702

