%chk=mol_4757.chk
# wB97XD/Def2SVP opt freq pop=full gfinput

C 4 H 9 N 1 O 2

1 2
C    1.62155938  -1.78240931   1.22032952
C    2.68114901  -0.99438959   0.45231983
N    3.64429855  -1.92636931  -0.15189995
C    2.06616926  -0.07399997  -0.62128979
O    1.33654952  -0.83133966  -1.60745943
C   -0.01421000  -0.77321970  -1.53266943
O   -0.67857975  -0.18003993  -0.69901973
H    0.89119965  -1.10462952   1.67543936
H    2.07873917  -2.36463904   2.02860928
H    1.08032954  -2.48198915   0.57402980
H    3.22865868  -0.36548987   1.16373956
H    3.17452884  -2.45658922  -0.88726962
H    3.94907856  -2.60765910   0.54204983
H    2.86286902   0.45588982  -1.15660954
H    1.44229949   0.69641972  -0.15228994
H   -0.44235983  -1.36850953  -2.35434914

