%chk=mol_0769.chk
# wB97XD/Def2SVP opt pop=full gfinput

C 4 H 8 O 2

1 2
C    1.270312  -0.073265   0.416911
C    3.850714  -1.325775   0.329908
C    5.786719   0.297878  -0.993599
O    5.392844   2.386101  -1.907395
O    8.055525  -0.922489  -1.016125
C   10.032253   0.456898  -2.230973
H   -0.090404  -1.292270   1.386246
H    0.560209   0.300070  -1.491126
H    1.353800   1.732765   1.424646
H    3.704581  -3.125418  -0.680471
H    4.504653  -1.681856   2.260320
H   10.380871   2.241593  -1.244215
H    9.564981   0.795348  -4.216905
H   11.753643  -0.682361  -2.148146

