%chk=mol_3825.chk
# wB97XD/Def2SVP opt pop=full gfinput

C 5 H 9 N 1 O 1

1 2
C   -3.295607   1.203567   0.543958
O   -3.252767  -1.494679  -0.496015
C   -0.634022  -1.431279   0.365927
C    1.725244  -2.071442  -1.049913
C    3.429532   0.112250  -0.037738
N    1.669819   2.170917   0.821955
C   -0.621531   1.386870  -0.490233
H   -4.716832   2.334568  -0.436735
H   -3.604180   1.232309   2.590871
H   -0.525835  -1.883849   2.396324
H    2.488713  -3.922486  -0.540311
H    1.502162  -1.977353  -3.107163
H    4.569244  -0.521848   1.570136
H    4.699711   0.800016  -1.517960
H    1.549160   2.121803   2.747152
H   -0.602067   1.786131  -2.530249

