%chk=mol_2704.chk
# wB97XD/Def2SVP opt freq pop=full gfinput

C 6 H 10 O 1

1 2
C    0.98416966   1.73834932   1.38626945
C    2.46721911   1.57600951   1.28990948
C    3.11518884   1.33035958   0.14016995
C    4.59245825   1.17111957   0.06042998
C    5.48345804   2.23344898   0.71421975
O    6.26228762   1.21351957   1.39223945
C    5.28172779   0.20602992   1.03170955
H    0.74351972   2.72827911   1.78561926
H    0.57062978   0.98412967   2.06268930
H    0.49141979   1.63281941   0.41480985
H    3.01209903   1.66972935   2.22706914
H    2.56245899   1.23825955  -0.79149973
H    4.89251804   0.97844958  -0.97935963
H    5.01820803   2.91217875   1.43567944
H    6.09803772   2.81257892   0.01858999
H    5.75211763  -0.66341978   0.56294978
H    4.71649837  -0.11956995   1.91041934

