%chk=mol_6299.chk
# wB97XD/Def2SVP opt pop=full gfinput

C 4 H 4 N 2 O 1

1 2
O    1.695840   0.801584   2.124902
C    4.006635   0.739979   2.172165
N    5.483229   2.571407   1.093736
C    8.072589   2.586695   1.092545
C    9.409627   4.435943   0.000000
C   12.066582   4.435943   0.000000
N   14.241675   4.435943   0.000000
H    5.078696  -0.794724   3.086169
H    4.493429   3.982843   0.252619
H    9.003468   1.007073   2.029982
H    8.484606   6.007081  -0.933128

