%chk=mol_1003.chk
# wB97XD/Def2SVP opt freq pop=full gfinput

C 4 H 9 N 1 O 1

1 2
C    0.83754969  -0.52301979  -0.16693993
C    2.33390927  -0.24738991  -0.23853990
C    2.96186900  -0.95384961  -1.43250942
O    2.55131912   1.15851951  -0.40804982
N    2.57337904   1.77677929   0.85170966
C    2.79292917   3.03734875   0.68486977
H    0.39070985  -0.01087000   0.69203973
H    0.63527977  -1.59450936  -0.07339997
H    0.32528988  -0.14504994  -1.05893958
H    2.82755899  -0.59760976   0.67664975
H    2.52100897  -0.60569972  -2.37338901
H    2.83515906  -2.03903913  -1.36536956
H    4.03298855  -0.73052973  -1.48624945
H    2.85033894   3.70462871   1.55790937
H    2.93107891   3.49600863  -0.30808988

