%chk=mol_6825.chk
# wB97XD/Def2SVP opt freq pop=full gfinput

C 5 H 10 N 2

1 2
C    0.92599964   0.00578000   0.30467987
C    2.43671918   0.02220999   0.07276997
C    2.83270884   1.23680949  -0.76522970
N    4.21954823   1.06784964  -1.18348956
N    4.52467871   0.00838000  -1.96906924
C    3.91267848  -1.09737957  -1.67751944
C    2.90897894  -1.28667951  -0.56848979
H    0.59555978   0.92802966   0.79401970
H    0.63879973  -0.83745968   0.94106960
H    0.38188988  -0.08584997  -0.64270973
H    2.92362881   0.10806996   1.05418956
H    2.73968887   2.14815903  -0.16459994
H    2.18698907   1.35298955  -1.64292932
H    4.56769848   1.92765927  -1.61324942
H    4.15207815  -1.99159932  -2.27683926
H    2.07177925  -1.85408938  -0.99100965
H    3.37255859  -1.93310928   0.18704993

