%chk=mol_6623.chk
# wB97XD/Def2SVP opt freq pop=full gfinput

C 4 H 8 O 2 S 1

1 2
C    3.94972873  -1.21012950  -0.41913986
S    2.77396894   0.00653000   0.10786996
O    1.80260932   0.18522993  -0.95304960
O    2.36782908  -0.31498986   1.46072936
C    3.77097869   1.52174938   0.23944990
C    3.84557867   2.35450912  -1.01091957
C    2.96613884   2.78913903   0.13188995
H    4.74587822  -1.27650952   0.32454988
H    4.35069799  -0.91535968  -1.39040947
H    3.43438864  -2.16903925  -0.50234979
H    4.60954809   1.50118947   0.91915965
H    3.35635877   2.01471925  -1.91737938
H    4.75216818   2.92091870  -1.19156957
H    3.28151894   3.63983870   0.72459978
H    1.89019930   2.72351909   0.00015000

