%chk=mol_5967.chk
# wB97XD/Def2SVP opt pop=full gfinput

C 5 H 7 N 1 O 1

1 2
O    3.467156   0.864947   2.019834
C    5.109404   0.163386   0.553293
C    5.389423  -2.513921  -0.406291
C    7.800412  -2.508649  -1.997686
C    8.773394   0.140142  -1.876233
C    7.300352   2.277706  -2.996217
N    7.080615   1.638374  -0.388981
H    3.735667  -3.042270  -1.526540
H    5.578207  -3.796913   1.204757
H    9.184504  -3.846726  -1.239150
H    7.396256  -3.059580  -3.951569
H   10.740957   0.349902  -1.377384
H    8.235805   4.068467  -3.313465
H    5.643591   1.911061  -4.135269

