%chk=mol_4217.chk
# wB97XD/Def2SVP opt pop=full gfinput

C 5 H 9 N 1 O 1

1 2
C    1.876252  -0.033089  -0.080030
C    4.755137   0.050059  -0.076969
O    5.686091  -2.083650  -1.476443
N    6.218125  -1.271918  -3.973263
C    6.266200   1.161029  -3.926756
C    5.821358   2.346397  -1.423606
C    8.326115   3.241372  -0.336863
H    1.085459   1.560706   0.974173
H    1.210199  -1.792594   0.784066
H    1.116242   0.003742  -2.005812
H    5.435589  -0.095299   1.872775
H    6.671659   2.325516  -5.598635
H    4.486814   3.916627  -1.561122
H    9.729651   1.719103  -0.272499
H    8.071058   3.962548   1.585575
H    9.120895   4.762582  -1.495397

