%chk=mol_6254.chk
# wB97XD/Def2SVP opt freq pop=full gfinput

C 4 H 11 N 1 O 2

1 2
O    0.83721966   2.02488923   2.11365914
C    1.14132965   1.27962947   0.93386966
C    1.69983935   2.21955919  -0.14065994
N    2.95582891   2.82902884   0.32574987
C    3.42195868   3.85355854  -0.62233979
C    4.72570848   4.47310877  -0.10564996
O    5.67523813   3.44299865   0.16304994
H    0.56056982   1.37856948   2.78657889
H    0.22006992   0.80742967   0.57889974
H    1.86540937   0.49788982   1.18724954
H    0.96123970   3.00567889  -0.33768988
H    1.87406933   1.65702939  -1.06376958
H    2.75355911   3.26291871   1.23315954
H    2.67166901   4.63900852  -0.76280969
H    3.61864853   3.37559891  -1.58907950
H    4.55542803   5.03074789   0.82115966
H    5.15302849   5.15356827  -0.84788966
H    5.13546801   2.69409895   0.49108982

