%chk=mol_6110.chk
# wB97XD/Def2SVP opt pop=full gfinput

C 4 H 4 N 2 O 1

1 2
O    1.744954  -0.213104   0.012926
C    4.327908  -0.011508  -0.002721
C    5.567889   2.183427  -0.004422
C    4.505995   4.665942   0.009165
C    6.525130   6.164116   0.000435
N    8.727171   4.794008  -0.017272
N    8.163352   2.464222  -0.020069
H    1.313114  -2.002562   0.010016
H    5.295239  -1.813721  -0.013852
H    2.537902   5.165188   0.023036
H    6.551265   8.203604   0.005858

