%chk=mol_6784.chk
# wB97XD/Def2SVP opt freq pop=full gfinput

C 5 H 12 N 2

1 2
C    0.83114970   0.25031993  -0.33067986
C    2.28600931   0.14265995   0.06835998
C    2.53465891   0.25175992   1.55693936
N    2.12023926  -0.97875965   2.22094917
C    3.16684890  -0.79142970  -0.73684973
C    3.29545856   0.69140971  -0.92808962
N    4.52815819   1.35828948  -0.52267981
H    0.70214969   0.22921991  -1.41875947
H    0.40448985   1.18992949   0.03620999
H    0.24897991  -0.57931978   0.08269997
H    1.98469925   1.10448968   1.97087920
H    3.59312844   0.41302985   1.78163934
H    1.11667967  -1.10501957   2.10846925
H    2.28232908  -0.88770962   3.22227883
H    2.71588898  -1.36809945  -1.53690946
H    3.95261860  -1.32785940  -0.21738991
H    2.89186883   1.08786964  -1.85911930
H    5.05184793   0.81180972   0.15901993
H    4.33441830   2.26070929  -0.09206997

