%chk=mol_6415.chk
# wB97XD/Def2SVP opt pop=full gfinput

C 5 H 5 N 1 S 1

1 2
C    4.546492  -0.067066   1.286563
N    3.090647   0.500588  -0.977612
C    4.273748   2.732204  -1.187655
C    4.727509   4.847110  -2.536069
S    7.042216   6.562452  -0.897847
C    7.368666   4.240772   1.446132
C    5.710998   2.382661   0.907749
H    5.825742  -1.688792   1.179775
H    3.436769  -0.256511   3.022031
H    3.315940  -0.753963  -2.413350
H    3.916571   5.531701  -4.278585
H    8.737735   4.433335   2.948200

