%chk=mol_4331.chk
# wB97XD/Def2SVP opt freq pop=full gfinput

C 5 H 7 N 1 O 1

1 2
C    1.06061959  -0.00013000  -0.06229998
C    2.56587911   0.11868995  -0.00146000
C    3.35999870  -1.17653954   0.00226000
C    3.49006867  -1.72391939  -1.35650957
C    3.59986854  -2.17448902  -2.46483922
N    3.07456875   1.31668949   0.01642999
O    4.47113848   1.28710949   0.04811998
H    0.59248978   0.98684967  -0.01029000
H    0.70987976  -0.60411978   0.77881968
H    0.76919973  -0.48295984  -0.99872965
H    2.83244896  -1.89411926   0.64076978
H    4.34609795  -1.02941966   0.45210984
H    3.70238876  -2.56927896  -3.44902873
H    4.70156813   2.23450923   0.01308000

