%chk=mol_3089.chk
# wB97XD/Def2SVP opt freq pop=full gfinput

C 6 H 12 O 1

1 2
C    1.65665936  -0.21766992   2.64702916
C    0.88933963  -0.02713999   1.35088944
C    1.82622933   0.17861994   0.16524994
O    1.02749956   0.38828987  -1.00072968
C    1.68426943   0.60338980  -2.17938924
C    3.00254893   0.62352979  -2.42167902
C    3.58412862   0.87897968  -3.77401853
H    0.96377963  -0.37416986   3.47970867
H    2.26641917   0.66316974   2.87415886
H    2.31915927  -1.08740962   2.58762908
H    0.21390991   0.83152968   1.44110954
H    0.24888991  -0.89749968   1.16565955
H    2.45350885  -0.71138972   0.03362999
H    2.46001911   1.05561960   0.34404987
H    0.94850963   0.76828969  -2.96065903
H    3.72249842   0.45062983  -1.62790930
H    2.81495881   1.09096956  -4.52318811
H    4.15487862   0.00614000  -4.10565853
H    4.26225853   1.73707926  -3.73053861

