%chk=mol_1143.chk
# wB97XD/Def2SVP opt pop=full gfinput

C 5 H 6 S 1

1 2
C    1.663318   0.164614  -0.015326
C    4.476629   0.114385  -0.000397
C    6.138208   2.123958   0.007011
C    8.709710   1.324018   0.020617
C    8.922210  -1.268913   0.023055
S    6.036900  -2.722642   0.008674
H    0.958450   2.110163  -0.000510
H    0.900908  -0.796085   1.652414
H    0.920542  -0.763941  -1.709862
H    5.541168   4.082168   0.002816
H   10.320569   2.586619   0.028195
H   10.633470  -2.385496   0.032465

