%chk=mol_6558.chk
# wB97XD/Def2SVP opt freq pop=full gfinput

C 3 H 6 O 3 S 1

1 2
C    1.04621959   0.02147999  -0.24669990
C    2.48092914  -0.05836998   0.15643995
C    3.09213901  -1.19528949   0.53290981
S    3.39983869   1.42408955   0.13729995
O    4.43132877   1.08628964  -1.05624962
O    2.58287883   2.52910924  -0.31254989
O    4.22118855   1.53197944   1.32407951
H    0.49968979   0.70296973   0.41314986
H    0.55401981  -0.95545965  -0.19431992
H    0.95583963   0.38342986  -1.27583945
H    2.55789924  -2.13965917   0.56086981
H    4.13850832  -1.21333957   0.82587969
H    5.31655788   1.39430952  -0.77041972

