%chk=mol_3306.chk
# wB97XD/Def2SVP opt pop=full gfinput

C 5 H 10 O 2

1 2
C    2.075316  -0.027873  -2.511748
O    2.695694   2.316181  -1.359847
C    5.363326   2.578796  -0.871145
C    6.737856   4.495111  -2.443605
C    6.126076   5.073896   0.265450
O    8.253568   5.039748   1.970814
C    7.556448   4.319631   4.465612
H    0.045826  -0.053706  -2.894305
H    2.531099  -1.589449  -1.236183
H    3.096165  -0.245872  -4.297558
H    6.411671   0.928347  -0.246628
H    5.687811   5.490958  -3.890228
H    8.692117   4.120718  -2.922159
H    4.651107   6.466133   0.598609
H    9.118911   4.776396   5.740024
H    7.214029   2.280162   4.536477
H    5.868828   5.343881   5.090582

