%chk=mol_0724.chk
# wB97XD/Def2SVP opt pop=full gfinput

C 4 H 6 O 2

1 2
C    1.705912   0.080200   0.092143
C    4.524590   0.000416   0.283572
C    6.015905   1.950934  -0.358821
C    8.794464   1.979110  -0.125194
O    9.894436  -0.282930  -0.501552
O    9.971253   3.916873   0.282722
H    1.044055  -1.431373  -1.154169
H    1.021756   1.881600  -0.659892
H    0.865495  -0.201161   1.960326
H    5.310168  -1.730139   1.063632
H    5.224960   3.737652  -0.986626
H    8.736412  -1.574822  -1.114560

