%chk=mol_1821.chk
# wB97XD/Def2SVP opt freq pop=full gfinput

C 5 H 10 N 2

1 2
C    0.75915974   0.57118976  -0.79940975
N    2.00806928   0.62426972  -0.04408998
C    2.79304886   1.56528938  -0.43902984
N    4.01124859   1.79837930   0.12029996
C    4.97968817   2.74115896  -0.16347994
C    4.72629833   3.72809839  -1.27551949
C    6.13301802   2.79762888   0.52290982
H    0.21338992  -0.33664986  -0.52457982
H    0.93825966   0.53399980  -1.87964928
H    0.12248995   1.43010950  -0.56312978
H    2.53043890   2.25324917  -1.26170957
H    4.23187828   1.15665948   0.87502968
H    4.57558823   3.20417881  -2.22531915
H    5.56373787   4.42075825  -1.41351950
H    3.83675861   4.32884836  -1.05844963
H    6.35290766   2.10567927   1.32939959
H    6.89352751   3.53920865   0.29847988

