%chk=mol_0031.chk
# wB97XD/Def2SVP opt pop=full gfinput

C 3 H 7 N 1

1 2
N    1.747619  -0.152388  -0.377284
C    4.418822   0.058525   0.228581
C    5.217496   2.763857   0.128067
C    6.236814   4.029576   2.072482
H    1.220385  -1.997781  -0.247441
H    1.469621   0.352434  -2.212132
H    5.531172  -1.039236  -1.130056
H    4.755628  -0.750675   2.103983
H    4.959038   3.747402  -1.656250
H    6.528550   3.143087   3.898335
H    6.774782   5.998577   1.874060

