%chk=mol_3002.chk
# wB97XD/Def2SVP opt freq pop=full gfinput

C 5 H 6 O 2

1 2
C    0.99999964   0.00000000   0.00000000
C    2.44399905   0.00000000   0.00000000
C    3.63415861   0.00000000   0.00000000
C    5.07815790   0.00000000   0.00000000
O    5.52417803   1.32971954   0.29505989
C    6.67836761   1.41313946   0.99262959
O    7.38385725   0.48830983   1.35896945
H    0.60596979   1.02086961   0.01167999
H    0.60592973  -0.52051979   0.87825966
H    0.60591978  -0.50030982  -0.88991970
H    5.46726799  -0.27570990  -0.98557961
H    5.44499779  -0.72624975   0.73412973
H    6.90204716   2.47512889   1.18458951

