%chk=mol_3003.chk
# wB97XD/Def2SVP opt pop=full gfinput

C 5 H 8 O 2

1 2
C    7.874791  -2.146370  -2.726610
C    7.668131  -0.897828  -0.146435
C    5.943472   1.350077  -0.217923
C    6.679993   3.705054   0.329304
O    4.983019   5.722185   0.245362
C    5.963560   8.042864   0.809332
O    8.138124   8.577032   1.375381
H    9.113261  -3.799975  -2.622033
H    8.664602  -0.842572  -4.126444
H    6.024182  -2.777519  -3.405249
H    9.560370  -0.360881   0.504708
H    6.923314  -2.263571   1.220990
H    3.982258   1.007734  -0.728130
H    8.593907   4.197611   0.863869
H    4.427609   9.440353   0.672459

