%chk=mol_5032.chk
# wB97XD/Def2SVP opt pop=full gfinput

C 4 H 6 N 2 O 1

1 2
C    5.564280  -2.307450   0.903969
N    4.510890   0.072169   0.054500
C    5.881640   2.232409   0.025058
C    4.943316   4.621836  -0.312239
O    6.865621   6.320964  -0.233136
N    9.129985   5.055981   0.154447
C    8.504448   2.612263   0.293663
H    4.179583  -3.816756   0.621285
H    6.026110  -2.228289   2.917605
H    7.262142  -2.803465  -0.167335
H    2.590229   0.159739   0.120224
H    3.087397   5.407905  -0.614841
H    9.985181   1.238810   0.582546

