%chk=mol_1975.chk
# wB97XD/Def2SVP opt freq pop=full gfinput

C 6 H 11 N 1

1 2
N    2.40458894  -0.42612985   1.46860945
C    2.54257917   0.01039000   0.08806997
C    3.04367900   1.41155946   0.01246999
C    4.18612862   1.82667935  -0.55116981
C    4.37162828   3.30112886  -0.42049983
C    2.98477888   3.77837849   0.00341000
C    2.27910924   2.55994916   0.59772980
H    2.09893918  -1.39853942   1.47804940
H    1.66162932   0.10730996   1.91498923
H    1.57608950  -0.06411997  -0.42233983
H    3.23091888  -0.66840976  -0.42824984
H    4.91724777   1.17743957  -1.01468956
H    5.12594795   3.52358866   0.34091988
H    4.67447805   3.75971866  -1.36612952
H    2.43105912   4.13344860  -0.87597966
H    3.03393888   4.61275816   0.71070975
H    1.22324955   2.54411912   0.31067988
H    2.35247898   2.55657887   1.69020939

