%chk=mol_7104.chk
# wB97XD/Def2SVP opt freq pop=full gfinput

C 6 H 7 N 1

1 2
C    1.03569961  -0.00755000   0.24399991
C    2.51908898  -0.10168996   0.00487000
C    3.06680894  -1.24194944  -0.44777983
C    3.36891890   1.05275953   0.26609990
C    2.96025872   2.24901915   0.71775973
C    3.87289858   3.31576872   0.94130963
N    4.61386824   4.18868828   1.12505960
H    0.59079975   0.77278972  -0.38276988
H    0.82612973   0.21982992   1.29475951
H    0.52221978  -0.94605964   0.00674000
H    2.45988917  -2.11941910  -0.65178972
H    4.13277864  -1.34342957  -0.63075978
H    4.43355799   0.91183966   0.07023997
H    1.91956937   2.45761919   0.93253964

