%chk=mol_3387.chk
# wB97XD/Def2SVP opt pop=full gfinput

C 7 H 14

1 2
C    1.857034   0.034903  -0.029650
C    4.725298   0.027855   0.086266
C    5.800193   2.124355   1.747108
C    8.499856   1.244876   2.187056
C    8.238242  -1.603281   2.628817
C   10.565194  -3.066478   1.782484
C    5.820923  -2.400784   1.224864
H    1.171101  -1.522836  -1.205664
H    1.165262   1.806729  -0.844027
H    1.021680  -0.169641   1.852782
H    5.469812   0.250124  -1.837948
H    4.782046   2.253083   3.547564
H    5.726097   3.973187   0.824506
H    9.651682   1.638034   0.508828
H    9.375177   2.202892   3.796403
H    7.957164  -1.941524   4.656947
H   10.917855  -2.816731  -0.239031
H   10.325124  -5.089675   2.144461
H   12.243498  -2.426805   2.810722
H    6.175852  -3.806570  -0.252959
H    4.499570  -3.256300   2.572919

