%chk=mol_3910.chk
# wB97XD/Def2SVP opt pop=full gfinput

C 5 H 7 N 1 O 1

1 2
C    1.866123  -0.073170  -0.015118
C    4.663013   0.106656  -0.000397
C    6.240802   2.182369   0.006425
C    8.758692   1.281102   0.020088
C    8.668609  -1.317158   0.021203
O   10.542499  -2.984823   0.032031
N    6.169446  -2.012048   0.008466
H    1.001914   1.806106   0.001380
H    1.194723  -1.101710   1.649410
H    1.210842  -1.065295  -1.707897
H    5.647371   4.140466   0.002079
H   10.468894   2.402220   0.028289
H    9.859004  -4.686275   0.029725
H    5.518095  -3.804435   0.005990

