%chk=mol_0551.chk
# wB97XD/Def2SVP opt pop=full gfinput

C 5 H 7 N 1

1 2
N    3.501077  -0.667602   2.945346
C    4.564936  -0.074795   0.483562
C    5.618175   2.542078   0.487927
C    8.044073   3.092461   0.000000
C    8.930978   5.597010   0.000000
C    9.681728   7.717093   0.000000
H    2.818413  -2.466338   2.919079
H    1.984893   0.469616   3.278013
H    3.093595  -0.219926  -0.964592
H    6.024390  -1.468733   0.023829
H    4.298995   4.066898   0.888946
H    9.392355   1.597858  -0.399998
H   10.352222   9.614624   0.005424

