%chk=mol_5875.chk
# wB97XD/Def2SVP opt pop=full gfinput

C 4 H 5 N 1 O 2

1 2
N    4.301621  -2.666498   1.422869
C    6.776955  -2.070970   0.975628
O    8.449494  -3.645981   0.765660
C    7.296214   0.778473   0.756193
O    5.531776   2.271772   0.920977
C    9.967322   1.549235   0.359520
C   10.595827   3.991007   0.150479
H    2.997748  -1.267061   1.560007
H    3.777033  -4.493731   1.583269
H   11.375830   0.065007   0.249085
H    9.187357   5.482058   0.260518
H   12.547480   4.550574  -0.137081

