%chk=mol_5111.chk
# wB97XD/Def2SVP opt freq pop=full gfinput

C 4 H 7 N 1 O 2

1 2
C    1.67750931  -0.71097970  -1.59956932
N    2.98134875  -0.20357993  -1.22536957
C    3.17667866   0.94702965  -0.49946979
C    4.33860826   1.58281934  -0.30941987
C    4.37033844   2.81259894   0.50487983
O    5.63173819   3.17960882   0.81103969
O    3.38811874   3.43590879   0.86700964
H    1.78029943  -1.71098936  -2.03128934
H    1.21080959  -0.05900998  -2.34420919
H    1.02060962  -0.78330970  -0.72680974
H    3.74902868  -0.48647982  -1.82906938
H    2.26091909   1.33102953  -0.04574998
H    5.25380802   1.21004951  -0.74454969
H    6.32554770   2.56289911   0.51718980

