%chk=mol_6151.chk
# wB97XD/Def2SVP opt freq pop=full gfinput

C 5 H 5 N 1 O 1

1 2
O    1.20766950   0.45938981  -0.90894967
C    2.07254910   0.23178992  -0.06949998
C    3.18992901   1.17192960   0.17707993
N    3.68047857   1.89044929  -1.00751960
C    2.98429894   2.65784907   0.02704999
C    3.75723839   3.54376864   0.84454972
C    4.40362835   4.28957844   1.52893949
H    2.06228924  -0.68398976   0.54373980
H    3.95809841   0.82486969   0.85808969
H    3.04242897   1.73513937  -1.79535937
H    1.99254918   3.00882864  -0.24448991
H    4.98316813   4.95333815   2.12710905

