%chk=mol_6254.chk
# wB97XD/Def2SVP opt pop=full gfinput

C 4 H 11 N 1 O 2

1 2
O    1.582116   3.826488   3.994239
C    2.156801   2.418150   1.764759
C    3.212232   4.194361  -0.265809
N    5.585709   5.346092   0.615578
C    6.466567   7.282173  -1.176052
C    8.930298   8.452953  -0.199650
O   10.724649   6.506327   0.308120
H    1.059324   2.605120   5.265873
H    0.415872   1.525822   1.093962
H    3.525114   0.940876   2.243577
H    1.816480   5.679912  -0.638142
H    3.541479   3.131333  -2.010234
H    5.203475   6.166025   2.330335
H    5.048725   8.766459  -1.441502
H    6.838257   6.378960  -3.002926
H    8.608515   9.506740   1.551767
H    9.737816   9.738836  -1.602280
H    9.704632   5.091111   0.928026

