%chk=mol_6364.chk
# wB97XD/Def2SVP opt freq pop=full gfinput

C 5 H 5 N 1 O 1

1 2
O    0.80881971   0.44087982   0.28159988
N    2.14681935   0.05104998   0.14403994
C    2.89554882   1.10917962   0.13128994
C    4.38090801   1.10055959   0.00000000
C    5.02627802  -0.06850997  -0.11621995
C    5.08390808   2.31818914   0.00000000
C    5.67898798   3.34889889   0.00000000
H    0.34100986  -0.41513982   0.28000990
H    2.44506907   2.11518931   0.22160992
H    4.49390841  -1.01498961  -0.11741996
H    6.10624743  -0.11263996  -0.21352991
H    6.21366787   4.27045822  -0.00023000

