%chk=mol_3945.chk
# wB97XD/Def2SVP opt pop=full gfinput

C 5 H 11 N 1 O 1

1 2
C    1.479429   0.378134  -0.887019
C    4.182266   0.007861  -0.065290
C    4.706741   0.238105   2.749344
C    3.040210  -1.453502   4.392196
O    3.541479  -4.049891   3.922637
C    5.852879  -1.703550  -1.644440
N    6.112999   1.033283  -1.788569
H    1.314796   0.587006  -2.942398
H    0.679149   2.073956  -0.014626
H    0.326942  -1.249411  -0.340283
H    4.423395   2.212794   3.313748
H    6.693202  -0.225652   3.131427
H    1.026745  -1.093603   4.102709
H    3.456574  -1.095720   6.386991
H    2.940735  -4.428913   2.227401
H    5.063181  -2.607047  -3.303563
H    7.387601  -2.722094  -0.751979
H    7.675160   1.631438  -0.823032

