%chk=mol_5977.chk
# wB97XD/Def2SVP opt freq pop=full gfinput

C 5 H 7 N 1 O 1

1 2
O    0.88826966  -0.17948993   0.01172000
C    2.11511922  -0.08683997  -0.00305000
C    2.80807900   1.25787950  -0.05594998
C    4.33488846   1.24119961  -0.03432999
C    4.96651793  -0.11124996  -0.01467999
C    4.25261831  -1.23632956   0.00978000
N    2.89176893  -1.21052957   0.01840999
H    2.44351912   1.84669936   0.79406971
H    2.46661901   1.76249933  -0.96754962
H    4.68632841   1.80140924   0.84134972
H    4.70899820   1.78814924  -0.90903962
H    6.05185795  -0.16211994  -0.01749999
H    4.71937847  -2.21734905   0.02777999
H    2.37452912  -2.08175921   0.04486998

