%chk=mol_3938.chk
# wB97XD/Def2SVP opt freq pop=full gfinput

C 5 H 7 N 1 O 1

1 2
C    1.01510966  -0.07830998   0.17341994
C    2.50439906   0.07883997  -0.09179997
C    3.21703887   1.14194965   0.76637971
C    4.07930851  -0.01694999   1.25762951
O    3.24978876  -0.98468965   0.57317978
C    2.81268883   0.12771995  -1.51400936
N    3.05572891   0.19940992  -2.64803886
H    0.80991971  -0.17397992   1.24544954
H    0.61529976  -0.97280961  -0.31770989
H    0.45565984   0.78940970  -0.19428994
H    2.60334897   1.60638940   1.54435945
H    3.76357865   1.92132938   0.22769992
H    5.10472822  -0.03400999   0.87652969
H    4.07982826  -0.17473994   2.33923912

