%chk=mol_4675.chk
# wB97XD/Def2SVP opt pop=full gfinput

C 5 H 7 N 1 O 1

1 2
C    1.847944  -0.802680  -0.441213
C    4.299845  -0.192960  -0.282212
N    5.451614   2.164360  -0.018349
C    3.918102   4.284954   0.191580
C    4.656796   6.697057   0.397863
C    8.097401   2.252062   0.033335
O    9.555552   0.453629  -0.146794
H    1.321486  -2.777538  -0.650009
H    0.297008   0.525779  -0.392761
H    5.638716  -1.760696  -0.382783
H    1.890142   3.977874   0.195152
H    6.601871   7.329038   0.416382
H    3.239482   8.176486   0.552424
H    8.861285   4.166449   0.267718

