%chk=mol_4026.chk
# wB97XD/Def2SVP opt freq pop=full gfinput

C 4 H 8 N 2 O 1

1 2
C    0.95502967  -0.04612998   0.28129989
C    2.44108891  -0.02441999  -0.04686998
C    2.83101892   1.26039958  -0.77185971
N    4.22703838   1.09867954  -1.16379964
N    4.56033850  -0.02256999  -1.85279930
C    3.82514858  -1.07133961  -1.66201937
O    2.73123884  -1.17703950  -0.86315972
H    0.67458975   0.80111969   0.91424966
H    0.69304979  -0.97354966   0.80198967
H    0.35127988  -0.01873999  -0.63258976
H    3.00953889  -0.13243996   0.88577968
H    2.71506906   2.13060927  -0.11833996
H    2.21780920   1.41274953  -1.66789937
H    4.57950830   1.93112922  -1.63878930
H    4.01519871  -2.02267909  -2.18121934

