%chk=mol_2841.chk
# wB97XD/Def2SVP opt freq pop=full gfinput

C 6 H 12 O 1

1 2
C    2.13478899  -0.37112987   1.34496951
C    2.56883907   0.18365993  -0.00549000
C    2.92402887   1.65804946   0.03970999
C    1.78139925   2.58377910   0.36391988
C    4.18290854   2.05759931  -0.23734991
C    4.73800850   3.44506860  -0.26853988
O    5.79647827   3.51635885   0.67518973
H    1.97055924  -1.45105946   1.27178955
H    1.19732952   0.08237997   1.68205941
H    2.89744902  -0.19480993   2.11092925
H    1.76747930   0.02961999  -0.73872972
H    3.42241859  -0.40822983  -0.36017984
H    0.93000966   2.37381911  -0.29187989
H    2.02656937   3.63951874   0.23599991
H    1.46128941   2.44608927   1.40170944
H    4.92502832   1.29827952  -0.48132983
H    4.01387835   4.22437811  -0.02628999
H    5.14779806   3.66038871  -1.25995946
H    5.42942810   3.21482873   1.52360952

