%chk=mol_4081.chk
# wB97XD/Def2SVP opt freq pop=full gfinput

C 4 H 8 N 2 O 1

1 2
C    0.94163966  -0.00480000   0.29092991
C    2.43762898  -0.04419998   0.02419999
C    2.91056895   1.19754958  -0.73285973
O    4.31451845   1.06452954  -0.99399966
N    4.63790798  -0.07792997  -1.77943933
C    3.87866855  -1.10752964  -1.58207941
N    2.76353908  -1.19782948  -0.79524970
H    0.67498970   0.87091964   0.89162970
H    0.62038976  -0.90009969   0.83459973
H    0.36979985   0.03470999  -0.64321977
H    2.98424888  -0.12847994   0.97097963
H    2.76605916   2.09865928  -0.12833995
H    2.38362908   1.33700943  -1.68480945
H    4.10133839  -2.04950929  -2.11063933
H    2.51437902  -2.11229920  -0.43682984

