%chk=mol_5014.chk
# wB97XD/Def2SVP opt freq pop=full gfinput

C 5 H 11 N 1 O 1

1 2
C    2.19500923  -0.45534983  -1.37793946
N    2.29310894   0.14586994  -0.05315998
C    3.20116878   1.29436958  -0.09894996
C    2.42184925   2.57139921  -0.48632979
C    3.18275881   3.28824878   0.65087980
C    3.32615876   1.90362930   1.33337951
O    4.56035805   1.64988935   2.03386927
H    1.49508953  -1.29594946  -1.34435952
H    3.16376877  -0.83693969  -1.71687937
H    1.81489933   0.25856990  -2.11583924
H    2.59426904  -0.56962979   0.61065978
H    4.15888834   1.14362967  -0.60990977
H    1.33699954   2.53793907  -0.32343990
H    2.61432910   2.95593882  -1.49187946
H    4.13262844   3.73731875   0.33988985
H    2.60241890   4.03091860   1.20463955
H    2.47603917   1.68856943   1.99513924
H    5.26637793   1.89578927   1.41300952

