%chk=mol_5368.chk
# wB97XD/Def2SVP opt freq pop=full gfinput

C 4 H 7 N 1 O 2

1 2
C    1.95399928   1.34533942   2.60463905
O    1.82191932   2.19126916   1.45720947
C    2.87044907   2.20743918   0.59070975
C    2.58388901   3.11839890  -0.55113977
C    1.44952941   3.81417847  -0.70884973
N    3.93440866   1.50034940   0.80050969
O    4.88659811   1.66881943  -0.21348992
H    1.07552958   1.49846947   3.23682880
H    2.84382892   1.61048937   3.18372893
H    1.98241925   0.29556990   2.29865909
H    3.37053871   3.20001888  -1.29261947
H    0.63419974   3.76342869   0.00583000
H    1.31524944   4.45714808  -1.57203937
H    5.61299801   1.09074962   0.08547997

