%chk=mol_3916.chk
# wB97XD/Def2SVP opt freq pop=full gfinput

C 5 H 7 N 1 O 1

1 2
C    1.05740964  -0.05485998   0.16279994
C    2.37916923   0.04508998  -0.00698000
C    3.21828866   1.28389955  -0.05043998
C    4.48427820   0.79507971  -0.74054974
N    4.50796795  -0.62259978  -0.52034980
C    3.26139879  -1.12942958  -0.23868991
O    2.94517899  -2.30126929  -0.20213993
H    0.56829977  -1.02569962   0.15696995
H    0.43808985   0.82218969   0.31318986
H    3.44458866   1.60975945   0.97133964
H    2.75155878   2.11049914  -0.59364980
H    4.44310856   0.96851963  -1.82146931
H    5.39204788   1.25129950  -0.33703989
H    5.23255825  -1.25096953  -0.84353971

