%chk=mol_6572.chk
# wB97XD/Def2SVP opt freq pop=full gfinput

C 4 H 6 O 2 S 1

1 2
C    0.97055966  -0.05049998   0.01058000
C    2.48073912   0.06516998   0.00179000
S    2.99204898   1.76879942  -0.00498000
O    2.79002905   2.39894915  -1.28770947
O    2.80513883   2.40496898   1.27633941
C    4.77832794   1.71892941  -0.01518999
C    5.98051786   1.68698943  -0.02193999
H    0.66817975  -1.10195959   0.01481999
H    0.53467977   0.42831981  -0.87227964
H    0.54464978   0.43256983   0.89598966
H    2.89573884  -0.40908986  -0.89217967
H    2.90580893  -0.40480983   0.89334971
H    7.04529715   1.67568934  -0.02796999

