%chk=mol_2654.chk
# wB97XD/Def2SVP opt pop=full gfinput

C 7 H 10

1 2
C    1.516808   1.529677   2.062050
C    4.339473   1.461665   2.031059
C    5.756124   2.280049   0.093390
C    8.597970   2.193518   0.060169
C    9.746111   4.840080  -0.144753
C   12.524273   4.729267  -0.203127
C   14.790697   4.644153  -0.248575
H    0.769137  -0.386506   2.274399
H    0.734215   2.339935   0.327301
H    0.858106   2.666271   3.659001
H    5.244973   0.688673   3.707567
H    4.843274   3.037810  -1.587068
H    9.196239   1.036666  -1.553884
H    9.320582   1.245008   1.757804
H    9.136769   6.001052   1.460437
H    9.061275   5.778688  -1.861135
H   16.803011   4.570057  -0.287484

