%chk=mol_7133.chk
# wB97XD/Def2SVP opt freq pop=full gfinput

C 6 H 11 N 1

1 2
C    0.97373962  -0.10077997   0.17099993
C    2.49653912  -0.02887999   0.00679000
C    2.88466883  -0.77214968  -1.28087950
C    3.02738905   1.43281937   0.00000000
C    2.54924893   2.24015903   1.21237957
C    4.47064829   1.46048939  -0.03684998
N    5.62106800   1.48253942  -0.06622998
H    0.66097975   0.25888991   1.15582955
H    0.62110972  -1.13433957   0.08392996
H    0.46449983   0.49554980  -0.59282976
H    2.94807887  -0.56995982   0.84996963
H    2.48232889  -0.26737988  -2.16515923
H    2.49477911  -1.79623938  -1.27012944
H    3.97139859  -0.84330970  -1.39347947
H    2.64372921   1.93543935  -0.89776963
H    2.80831909   1.73994935   2.15291905
H    1.46534944   2.39139915   1.19115949
H    3.01022887   3.23535895   1.23001957

