%chk=mol_0324.chk
# wB97XD/Def2SVP opt pop=full gfinput

C 5 H 11 N 1

1 2
C    2.168895   0.254848   0.209552
C    5.005223  -0.147342  -0.165483
C    5.496533  -1.595685  -2.616798
C    6.357587   2.358321  -0.199328
C    7.139328   3.604029   2.241952
N    9.007909   2.461179   0.566540
H    1.796865   1.248958   1.986499
H    1.167170  -1.554753   0.268492
H    1.361056   1.390593  -1.321712
H    5.700416  -1.303231   1.411323
H    4.824150  -0.537003  -4.264394
H    4.539878  -3.430382  -2.595085
H    7.521544  -1.935306  -2.877221
H    5.807507   3.558449  -1.766743
H    6.805168   2.622524   4.006200
H    7.126705   5.646634   2.349742
H    9.959499   3.810652  -0.433806

