%chk=mol_1893.chk
# wB97XD/Def2SVP opt pop=full gfinput

C 6 H 11 N 1

1 2
N    1.525557  -0.097548  -1.065654
C    4.160364  -0.017442  -0.157528
C    6.084540  -1.380086  -1.786150
C    6.015622   1.451140  -1.773754
C    4.494392  -0.024812   2.756884
C    2.874954   1.524140   4.527670
C    2.664778  -1.304138   4.537100
H    1.448645  -0.037095  -2.986429
H    0.581355   1.460456  -0.447166
H    5.431545  -2.363348  -3.459333
H    7.649611  -2.311513  -0.848676
H    7.540253   2.441186  -0.828796
H    5.334432   2.403618  -3.452775
H    6.471027  -0.168450   3.334290
H    1.311489   2.594726   3.756417
H    3.796063   2.424235   6.120218
H    3.443799  -2.328898   6.129194
H    0.976951  -2.151831   3.744360

