%chk=mol_3831.chk
# wB97XD/Def2SVP opt freq pop=full gfinput

C 7 H 12

1 2
C    1.01045954  -0.11100996  -0.02974999
C    2.53096914  -0.11669996   0.01135000
C    3.09500885   1.30854952   0.02118999
C    4.63326836   1.34617949  -0.00367000
C    5.12328815   2.78392887  -0.18602993
C    5.20640802   0.78165972   1.23548961
C    5.67351818   0.31839988   2.23942900
H    0.62766981  -1.13639963  -0.02654999
H    0.64408976   0.38537985  -0.93394965
H    0.59659982   0.40887985   0.84018970
H    2.91164899  -0.66158974  -0.86025965
H    2.85581875  -0.66253978   0.90396971
H    2.71869898   1.84183931   0.90420967
H    2.71060896   1.84187925  -0.85799968
H    4.98859835   0.75679976  -0.85831970
H    4.79631805   3.42676878   0.63953978
H    4.74172831   3.21082878  -1.11963964
H    6.21794748   2.82366872  -0.22263992
H    6.08678770  -0.09518997   3.13087893

