%chk=mol_4921.chk
# wB97XD/Def2SVP opt pop=full gfinput

C 5 H 9 N 1 O 1

1 2
C    1.483643  -2.548163   0.070166
C    4.321823  -2.618858   0.233910
O    5.457416  -4.421165   1.146157
N    5.489692  -0.491896  -0.695306
C    8.185632  -0.187310  -0.479216
C    8.972079   1.767518  -2.360533
C    9.974806   4.016103  -1.771165
H    0.836846  -1.117149  -1.273694
H    0.707041  -2.125394   1.937064
H    0.796255  -4.389173  -0.570697
H    4.437757   1.078051  -0.977518
H    9.139812  -1.982474  -0.861413
H    8.611539   0.376755   1.465955
H    8.730969   1.274204  -4.342648
H   10.284286   4.586328   0.176255
H   10.527362   5.336606  -3.243318

