%chk=mol_5249.chk
# wB97XD/Def2SVP opt freq pop=full gfinput

C 4 H 8 N 2 O 1

1 2
C    7.13217735  -0.15141994   1.13281965
N    6.16866779   0.91789961   0.89211965
N    5.18924809   0.62084979  -0.00025000
C    4.38586855   1.60414946  -0.24102992
O    3.30980873   1.55714941  -1.08200955
C    3.09580874   0.36042988  -1.76749933
C    1.88329935   0.00568000  -2.19535923
H    7.89673710   0.19048993   1.83629942
H    7.63302708  -0.43859982   0.20314993
H    6.64060736  -1.03212965   1.55758941
H    5.78015757   1.21184957   1.79256940
H    4.45549822   2.60988903   0.20749994
H    3.98933864  -0.22584991  -1.94232917
H    1.01773965   0.63129973  -2.00681925
H    1.73703933  -0.92149961  -2.73835897

