%chk=mol_0510.chk
# wB97XD/Def2SVP opt freq pop=full gfinput

C 4 H 4 N 2

1 2
C    1.42680955  -0.21884991  -0.54872978
N    2.68312883  -0.18069993  -0.25575989
N    3.14587903   1.13375962  -0.26844990
C    4.39819860   1.17815948   0.02296999
C    4.91605806   2.51681924   0.02103999
C    5.35512781   3.63511872   0.02095999
H    0.90125966  -1.18529963  -0.58313978
H    0.83224970   0.68341970  -0.77272975
H    5.04899836   0.32134989   0.25598991
H    5.73564816   4.63003826   0.01848999

