%chk=mol_4424.chk
# wB97XD/Def2SVP opt freq pop=full gfinput

C 5 H 9 N 1 O 1

1 2
C    1.30052948  -0.44748983  -0.06360997
C    2.80467892  -0.26926991   0.07487997
C    3.20160890   1.20627952  -0.00742000
C    4.71610832   1.42967939   0.07396997
O    4.97590828   2.81037903  -0.22157992
C    5.25950813   1.06790960   1.39852953
N    5.66804790   0.79797971   2.45303917
H    1.03705955  -1.50782943   0.00147000
H    0.94732964  -0.06840998  -1.02788961
H    0.76790971   0.08434997   0.73128974
H    3.30743885  -0.83393967  -0.71879971
H    3.12357903  -0.69789976   1.03140962
H    2.69770908   1.77271938   0.78726971
H    2.83242893   1.63001943  -0.95084965
H    5.21817827   0.84322971  -0.70326972
H    4.66328812   3.33640862   0.53664982

