%chk=mol_3697.chk
# wB97XD/Def2SVP opt freq pop=full gfinput

C 5 H 10 O 2

1 2
O    3.50435853   1.43269944   2.43438911
C    2.82682896   2.43358922   1.68846929
C    2.88876891   2.10787916   0.20116994
C    4.30996847   1.97385931  -0.35199988
C    5.10975790   3.23141885  -0.21753992
C    5.86859798   3.80441856  -1.38629949
O    4.60869837   4.34622812  -0.96615964
H    3.38961887   1.65443945   3.37454891
H    3.28265882   3.40434861   1.90512931
H    1.78325939   2.46313930   2.01814914
H    2.34146905   2.87741899  -0.35605988
H    2.37416911   1.15436959   0.02850999
H    4.24168873   1.68287933  -1.40717947
H    4.83962822   1.16048956   0.15666994
H    5.48115778   3.41011882   0.78297967
H    5.89082766   3.25828862  -2.32076907
H    6.75571728   4.39157820  -1.18449962

