%chk=mol_2908.chk
# wB97XD/Def2SVP opt freq pop=full gfinput

C 6 H 8 O 1

1 2
C    0.39572987   0.42673984  -0.08106998
C    1.82329929   0.06034998   0.15595995
C    2.84950876   0.91601962   0.02780999
C    4.24360847   0.46153983   0.28399992
O    4.51892853  -0.68582976   0.61233979
C    5.27691793   1.51770949   0.10783996
C    6.57184744   1.23795950   0.30228987
H   -0.02248999  -0.19894992  -0.87538970
H    0.28113988   1.47467935  -0.37584987
H   -0.18750992   0.26244989   0.83006966
H    2.01355910  -0.97159964   0.44955984
H    2.68987894   1.94704938  -0.26239988
H    4.96185827   2.51285911  -0.17957993
H    6.90068722   0.24266991   0.59095973
H    7.33281708   2.00024915   0.17653994

