%chk=mol_3590.chk
# wB97XD/Def2SVP opt pop=full gfinput

C 5 H 4 O 2

1 2
O    1.807825   0.048075   0.241866
C    4.114349   0.068635   0.064288
C    5.550409   2.456512  -0.034450
C    8.065275   2.328426  -0.229035
O    9.429564   0.116332  -0.345366
C    8.103826  -2.119819  -0.254130
C    5.591756  -2.292918  -0.061265
H    4.510493   4.210234   0.054556
H    9.296848   3.956728  -0.315849
H    9.362308  -3.725519  -0.359124
H    4.580696  -4.066180   0.007994

