%chk=mol_4594.chk
# wB97XD/Def2SVP opt pop=full gfinput

C 6 H 11 N 1

1 2
C    1.276510   1.930166  -0.821067
C   -0.987665   0.397901  -0.050607
C    1.593795  -0.794422  -0.067010
C    3.041949  -1.617322   2.234545
C    2.795529  -0.274445   4.816968
C    2.747397  -2.964375   5.906320
N    1.814817  -3.842512   3.420102
H    1.484191   2.405810  -2.802539
H    1.921965   3.387920   0.464551
H   -2.308886  -0.177086  -1.506527
H   -1.870375   0.802038   1.751625
H    1.971287  -2.134143  -1.576372
H    5.030054  -1.969586   1.740060
H    1.041012   0.780419   5.116509
H    4.396183   0.900058   5.384812
H    4.613709  -3.713312   6.408572
H    1.447058  -3.273081   7.481104
H    2.510048  -5.541527   2.847269

