%chk=mol_6667.chk
# wB97XD/Def2SVP opt pop=full gfinput

C 4 H 8 N 2 S 1

1 2
N    5.666608  -2.306789   1.091544
C    4.851532  -0.508166  -0.522169
S    1.880051  -0.454404  -1.519737
N    6.541552   1.276302  -1.259106
C    9.084632   1.542395  -0.405290
C   11.173384  -0.041744  -1.502691
C   11.040045   2.726478  -2.095744
H    7.532675  -2.602965   1.351683
H    4.471886  -3.730300   1.542092
H    5.828558   2.631859  -2.414314
H    9.208012   2.014656   1.591735
H   10.708927  -1.363041  -2.997540
H   12.655609  -0.681341  -0.243208
H   12.427595   3.962283  -1.233821
H   10.503268   3.266581  -3.996960

