%chk=mol_3344.chk
# wB97XD/Def2SVP opt pop=full gfinput

C 6 H 12 O 1

1 2
C    2.201455   1.523932  -2.402012
O    4.882334   1.600409  -2.277592
C    5.743275   2.580137   0.081542
C    8.610538   2.614757   0.043388
C    9.893377   4.625728  -1.664263
C   11.924398   4.888721   0.409145
C    9.918077   3.946542   2.303501
H    1.656364   0.721063  -4.225409
H    1.417975   3.433065  -2.260131
H    1.437930   0.327338  -0.898262
H    5.071534   1.360659   1.616661
H    4.978106   4.485719   0.363375
H    9.380619   0.711652  -0.275995
H    8.777740   6.348365  -1.953372
H   10.568313   3.948734  -3.495483
H   13.524392   3.595431   0.177918
H   12.639604   6.798706   0.732439
H   10.615404   2.701080   3.796441
H    8.811226   5.473100   3.163269

