%chk=mol_4583.chk
# wB97XD/Def2SVP opt freq pop=full gfinput

C 5 H 10 N 2

1 2
C    1.72241938  -0.14133994  -0.04493998
C    0.86696965  -1.26896954   0.53098983
C   -0.41183984  -1.50082934  -0.25094992
C   -1.48896945  -0.45662981  -0.07375997
N   -1.38737953   0.80601966   0.22206992
N   -0.16921994   1.34648943   0.45856982
C    0.93092966   1.09311962  -0.46773985
H    2.28076911  -0.51185977  -0.91374964
H    2.47083902   0.13959995   0.70707977
H    1.46384943  -2.18853927   0.53903979
H    0.62603980  -1.04866958   1.57856941
H   -0.85442966  -2.44764900   0.08217997
H   -0.21464993  -1.60905945  -1.32320952
H   -2.51309896  -0.81009966  -0.29010990
H   -0.28069988   2.35674906   0.57457978
H    1.60926938   1.95463932  -0.47241983
H    0.55818981   0.99235964  -1.49413943

