%chk=mol_1492.chk
# wB97XD/Def2SVP opt pop=full gfinput

C 5 H 12 N 2

1 2
C    5.209068  -2.383190  -0.961757
C    4.212993  -0.075910   0.461188
N    3.539911  -0.774637   3.060695
C    6.180501   2.056646   0.553009
N    8.321504   1.738113   2.333925
C    6.702840   3.515533  -1.846527
C    5.230119   4.737657   0.242868
H    5.703477  -1.887364  -2.909328
H    3.780605  -3.879816  -1.035627
H    6.907270  -3.165764  -0.072698
H    2.498804   0.593525  -0.491707
H    5.057172  -1.619949   3.885900
H    2.159088  -2.114887   3.007858
H    7.600271   1.710769   4.123269
H    9.176888   0.037983   2.064450
H    5.690570   3.011940  -3.553441
H    8.612427   4.179016  -2.181027
H    6.145333   6.222887   1.317574
H    3.223646   5.040429  -0.031237

