%chk=mol_6543.chk
# wB97XD/Def2SVP opt freq pop=full gfinput

C 4 H 8 N 2 S 1

1 2
C    0.53097981  -0.61278975  -0.12379996
C    2.01434922  -0.42854983  -0.25867990
C    2.79609895  -1.47890949  -0.55733979
N    2.61124897   0.81162971  -0.14687994
C    2.14852929   2.04901910   0.15257993
N    0.89801967   2.21554923   0.61581975
S    3.13011885   3.37808871  -0.05482998
H   -0.01656999   0.10639996  -0.74141973
H    0.21895991  -0.51858979   0.92092967
H    0.21547993  -1.60922933  -0.45662981
H    2.38144922  -2.47505903  -0.68164974
H    3.86998868  -1.38728952  -0.68577975
H    3.59572864   0.84375966  -0.39838985
H    0.49778980   1.49291945   1.19326961
H    0.65227979   3.15929890   0.89090967

