%chk=mol_4729.chk
# wB97XD/Def2SVP opt freq pop=full gfinput

C 4 H 10 N 2 O 1

1 2
C    2.55223918  -1.08491957   0.79159969
C    2.76442909  -0.01456999  -0.26507989
N    3.65618873   1.00776958   0.28493991
C    3.92417860   1.94288921  -0.55770981
N    4.72954845   3.00682878  -0.26860991
O    5.46690798   3.43291855  -1.37768948
C    5.64165783   4.84012842  -1.23305953
H    1.88000929  -1.86444938   0.41914985
H    2.11350918  -0.65677971   1.69908929
H    3.50208879  -1.55363941   1.06924951
H    1.79628932   0.42340985  -0.53519976
H    3.20399880  -0.47256982  -1.15915966
H    3.51620865   1.97071922  -1.58457935
H    5.28941774   2.83692884   0.56482977
H    6.20736790   5.20435810  -2.09467936
H    6.20918751   5.06491804  -0.32379988
H    4.67221832   5.34864807  -1.21222949

