%chk=mol_2280.chk
# wB97XD/Def2SVP opt pop=full gfinput

C 6 H 8 O 1

1 2
C    2.057950   0.234383   0.973001
C    4.288034   0.006690  -0.184456
C    5.758449  -2.401974  -0.540084
C    7.873147  -1.678738  -2.262323
C    9.874915   0.187499  -1.468090
C    7.536889   1.075935  -2.811232
O    5.475368   2.079946  -1.294425
H    1.130000   2.057855   1.096098
H    1.112538  -1.384602   1.796808
H    4.579468  -3.867041  -1.400911
H    6.499165  -3.091592   1.264737
H    8.218646  -2.968306  -3.803187
H   10.079176   0.629638   0.520298
H   11.635063   0.202163  -2.514564
H    7.711387   1.728514  -4.743023

