%chk=mol_6728.chk
# wB97XD/Def2SVP opt freq pop=full gfinput

C 5 H 8 N 2

1 2
C    0.99380964   0.06972997  -0.00471000
N    2.43505907  -0.02132999  -0.00495000
N    3.16211867   1.11261964  -0.00749000
C    4.42472792   0.68424976  -0.00772000
C    4.51118851  -0.71743971  -0.00538000
C    3.20323896  -1.15908957  -0.00408000
C    2.66547918  -2.54119921  -0.00198000
H    0.69214976   1.12033963   0.00013000
H    0.61651975  -0.42665982   0.89295965
H    0.61710978  -0.41870984  -0.90718967
H    5.22664785   1.41047955  -0.00963000
H    5.40450811  -1.32620943  -0.00549000
H    1.57240939  -2.57048893   0.01757999
H    3.02955866  -3.08638883   0.87466967
H    2.99796891  -3.07576895  -0.89800966

