%chk=mol_1342.chk
# wB97XD/Def2SVP opt pop=full gfinput

C 5 H 8 N 2

1 2
C    1.889726   0.000000   0.000000
C    4.618491   0.000000   0.000000
C    6.867567   0.000000   0.000000
C    9.596332   0.000000   0.000000
N   10.564287   2.578928  -0.288032
N   13.118157   2.817487  -0.295761
C   13.869551   5.095193  -0.744571
H    1.145193   1.929184   0.022072
H    1.145023  -0.983640   1.659652
H    1.145042  -0.945392  -1.681743
H   10.305338  -1.176468  -1.549708
H   10.306208  -0.812072   1.768368
H    9.753084   3.671870   1.082794
H   15.908943   5.511084  -0.795027
H   12.577526   6.693372  -1.102088

