%chk=mol_0782.chk
# wB97XD/Def2SVP opt pop=full gfinput

C 6 H 10

1 2
C    1.560252   0.109888  -0.276902
C    4.376001   0.030425  -0.459638
C    5.912424   1.633158   0.762882
C    8.630455   1.521494   0.558452
C   10.169675   3.123264   1.779725
C   12.985839   3.041457   1.595156
H    0.852021  -1.688036   0.460016
H    0.741755   0.411601  -2.152058
H    0.896807   1.622670   0.967124
H    5.159954  -1.434038  -1.669063
H    5.112805   3.094086   1.970077
H    9.430923   0.059885  -0.649045
H    9.388216   4.589067   2.989736
H   13.647073   1.526937   0.351602
H   13.805017   2.740424   3.469915
H   13.694713   4.838171   0.856499

