%chk=mol_3520.chk
# wB97XD/Def2SVP opt pop=full gfinput

C 5 H 8 O 2

1 2
O    1.540335  -0.661196   0.196985
C    3.917875  -1.085629  -1.023419
C    4.452138   0.542692  -3.283683
C    5.767274   1.064294  -0.812696
C    8.525178   0.527215  -0.487852
C    9.196900  -0.460772   2.101243
O    7.660459  -0.948831   3.772593
H    1.719896  -0.857520   2.019739
H    4.644739  -3.004381  -1.040162
H    2.982725   1.835812  -3.889812
H    5.510687  -0.296404  -4.823243
H    5.179229   2.712721   0.252940
H    9.597768   2.273775  -0.783915
H    9.191835  -0.862943  -1.872454
H   11.234119  -0.769818   2.424575

