%chk=mol_5279.chk
# wB97XD/Def2SVP opt freq pop=full gfinput

C 5 H 11 N 1 O 1

1 2
C    1.90989923  -0.50286978  -1.26146960
O    2.20269918   0.08581997  -0.00187000
C    3.07847881   1.23294961  -0.03574999
C    2.45855904   2.56571913  -0.52103978
C    3.13029885   3.28257871   0.66227973
N    4.42686844   3.81241846   0.23380990
C    3.32810879   1.91278934   1.33271945
H    1.25517952  -1.36284947  -1.09960949
H    2.83197880  -0.84402972  -1.74070930
H    1.39712942   0.21677992  -1.90579927
H    4.01970863   0.98918962  -0.54641980
H    1.36284947   2.57990909  -0.46658984
H    2.75074887   2.88276887  -1.52724946
H    2.50603914   4.00053835   1.19954956
H    5.05115795   3.14752889  -0.22070991
H    4.96710825   4.22471857   0.99458969
H    4.30505848   1.71663940   1.78608942
H    2.55695891   1.68252933   2.07850933

