%chk=mol_1797.chk
# wB97XD/Def2SVP opt pop=full gfinput

C 5 H 10 N 2

1 2
C    2.857701   0.390720   1.525406
N    5.476596   1.089049   1.071494
C    5.967037   3.048601  -0.316548
C    3.894423   4.652922  -1.492921
N    8.400437   3.887412  -0.880140
C   10.370646   1.947968  -1.186880
C   10.332380   3.593371   1.098951
H    2.815616  -1.329611   2.673641
H    1.856883  -0.028667  -0.234893
H    1.851308   1.855522   2.582594
H    2.784153   3.505820  -2.806054
H    4.704171   6.240651  -2.540680
H    2.663285   5.408926  -0.016460
H   11.679018   2.381527  -2.692028
H    9.737608   0.011168  -1.033094
H    9.671146   2.823402   2.872440
H   11.613841   5.178965   1.193835

