%chk=mol_3677.chk
# wB97XD/Def2SVP opt freq pop=full gfinput

C 5 H 8 O 2

1 2
O    2.37668920  -0.35270986  -1.48539948
C    2.34269929   0.16221994  -0.15618995
C    3.30634880   1.34252954   0.00779000
O    3.36102867   1.72347927   1.40110946
C    3.15694880   3.14379883   1.49998951
C    2.78814888   3.59422874   0.13895994
C    2.86876893   2.57246900  -0.71101969
H    1.74977934  -1.09583962  -1.51203942
H    2.61964893  -0.64238977   0.53360975
H    1.31476951   0.45713985   0.08362997
H    4.31427813   1.06081951  -0.31868988
H    4.08258820   3.61318851   1.84630930
H    2.35874915   3.33266878   2.22335911
H    2.51066899   4.60492849  -0.11662995
H    2.67202902   2.60989904  -1.77174938

