%chk=mol_6674.chk
# wB97XD/Def2SVP opt freq pop=full gfinput

C 3 H 6 O 3 S 1

1 2
O    0.91570961   0.13256995  -0.12559995
C    2.36155915   0.05295998  -0.06885997
C    3.04741883   1.04024959   0.90793967
C    4.14821863   0.02506999   1.27874947
S    3.06657887  -1.31066954   0.87756968
O    2.21189928  -1.68851948   1.98477924
O    3.69598866  -2.28080916   0.00719000
H    0.61391973  -0.79370970  -0.18068993
H    2.78405881   0.06510998  -1.07990956
H    2.41437912   1.32734954   1.75696933
H    3.41810870   1.95958936   0.44439983
H    5.02843809   0.05308998   0.62838978
H    4.46720839   0.04419998   2.32370925

