%chk=mol_6150.chk
# wB97XD/Def2SVP opt pop=full gfinput

C 4 H 7 N 1 O 2

1 2
O    4.631832  -0.735840  -2.850274
C    4.516786   0.146019  -0.311521
C    6.240915   2.409552  -0.032579
C    6.475392   3.320589   2.657862
O    6.576379   6.019628   2.492719
N    5.298660   6.738612   0.252902
C    5.121876   4.735843  -1.123348
H    3.558222  -2.226645  -2.963828
H    5.128792  -1.394731   0.926457
H    2.546387   0.613216   0.118845
H    8.074762   2.110200  -0.943200
H    8.195951   2.622845   3.566178
H    4.850606   2.807774   3.835010
H    4.293571   4.734520  -3.029080

