%chk=mol_0576.chk
# wB97XD/Def2SVP opt pop=full gfinput

C 4 H 6 N 2

1 2
N    2.302405  -0.052421   1.084344
C    4.571153  -0.282552  -0.119261
N    5.127980  -2.319488  -1.346581
C    6.441925   1.909341  -0.126574
C    6.763632   3.042932   2.394491
C    7.044540   3.974510   4.443313
H    1.763530   1.706687   1.624579
H    0.867876  -1.186691   0.531693
H    3.707813  -3.609622  -1.129300
H    5.731237   3.328809  -1.456412
H    8.266059   1.241172  -0.842553
H    7.311955   4.790078   6.266691

