%chk=mol_4357.chk
# wB97XD/Def2SVP opt freq pop=full gfinput

C 5 H 9 N 1 O 1

1 2
C    0.68471974  -0.01940999   0.21837991
C    2.17875910  -0.05694998   0.21124992
C    2.95171881   0.99552965  -0.10070997
C    4.44664812   0.98143959  -0.09357996
N    4.88926792   1.18981957  -1.44753945
C    6.14492798   1.66516936  -1.71581936
O    6.96592760   2.02653933  -0.88563967
H    0.28987989  -0.77367967  -0.46902981
H    0.29371989   0.95684969  -0.08598997
H    0.31094989  -0.23907991   1.22304952
H    2.63691902  -1.00484967   0.48576981
H    2.48834920   1.94602931  -0.35769987
H    4.85249805   0.02298999   0.24793991
H    4.83505821   1.77109933   0.55778980
H    4.35737848   0.77579969  -2.20144916
H    6.34962749   1.69196939  -2.79901886

