%chk=mol_3400.chk
# wB97XD/Def2SVP opt pop=full gfinput

C 6 H 8 O 1

1 2
C    5.014350  -1.977674   0.629487
O    7.529500  -1.047985   0.756949
C    7.642620   1.589694   0.182925
C   10.319983   2.589511   0.328982
C   12.340857   1.170931   0.923434
C   10.717299   5.209049  -0.199158
C   11.049606   7.410089  -0.642809
H    5.042734  -3.994012   1.079071
H    4.247651  -1.737679  -1.275924
H    3.813486  -1.011740   2.008212
H    6.455305   2.623356   1.531585
H    6.905324   1.893411  -1.730460
H   12.150788  -0.828550   1.342424
H   14.231641   1.961498   1.008112
H   11.356593   9.359983  -1.033964

