%chk=mol_5794.chk
# wB97XD/Def2SVP opt freq pop=full gfinput

C 4 H 6 N 2 O 1

1 2
N    0.90332967   0.08961996  -0.01223000
C    2.29290915   0.02703999  -0.00704000
C    2.87193894  -1.38201940  -0.03345999
O    2.17487931  -2.12728930  -1.03305960
C    3.05351877   1.13798952   0.00000000
C    4.45951843   1.13798952   0.00000000
N    5.61052799   1.13798952   0.00000000
H    0.50344980   0.92718965  -0.42651984
H    0.48918983  -0.77351969  -0.37782985
H    2.70363879  -1.87071919   0.93136966
H    3.94012833  -1.42227936  -0.26100990
H    2.42221904  -1.73360944  -1.88721931
H    2.57865906   2.11257935   0.02327999

