%chk=mol_0802.chk
# wB97XD/Def2SVP opt pop=full gfinput

C 4 H 10 O 2

1 2
C    1.294954   0.033448  -1.044943
C    4.139256  -0.284952  -0.915875
O    5.213074   2.043210  -0.089290
C    7.883711   1.873569   0.172381
O    8.628603   0.263485   2.193934
C    7.938853   1.284409   4.580810
H    0.384370  -1.717024  -1.658461
H    0.789584   1.547421  -2.361118
H    0.539252   0.566672   0.806025
H    4.879008  -0.770196  -2.787800
H    4.605055  -1.802402   0.412811
H    8.636370   3.778262   0.477968
H    8.720652   1.158534  -1.581285
H    8.560459  -0.029744   6.048824
H    5.887914   1.500083   4.728057
H    8.872113   3.103289   4.890195

