%chk=mol_6655.chk
# wB97XD/Def2SVP opt pop=full gfinput

C 4 H 2 N 2 S 1

1 2
N    1.709541  -0.017442  -0.001455
C    3.902417   0.073170  -0.000076
C    6.616007   0.077479   0.001568
N    7.797161   2.301838   0.003874
S   10.892022   1.788380   0.005367
C   10.695435  -1.441521   0.002910
C    8.179283  -2.122351   0.000907
H   12.360169  -2.625491   0.003042
H    7.506899  -4.053973  -0.000888

