%chk=mol_2378.chk
# wB97XD/Def2SVP opt pop=full gfinput

C 6 H 8 O 1

1 2
C    1.876895   0.038891   0.106014
C    4.683327  -0.046374   0.095620
C    6.154328  -2.079436  -0.156337
C    8.845146  -1.295218  -0.059923
O    8.834243   1.410907   0.270911
C    6.307075   2.116361   0.364131
C    5.634351   4.526744   0.669851
H    1.064710  -1.851856  -0.117333
H    1.173558   1.210955  -1.447247
H    1.173048   0.816475   1.889537
H    5.518964  -4.001590  -0.394310
H    9.834494  -2.158275   1.537689
H    9.835382  -1.748394  -1.817784
H    7.069295   5.979320   0.850301
H    3.674591   5.111898   0.749106

