%chk=mol_0239.chk
# wB97XD/Def2SVP opt freq pop=full gfinput

C 5 H 9 N 1

1 2
C    0.92171967  -0.01387999   0.92587966
C    0.27588987  -1.04307961  -0.03038999
C    0.75134969  -0.03564999  -1.10344958
N    0.32742986   0.99811965  -0.05668998
C   -1.13739955   0.76837975   0.06612998
C   -1.20549965  -0.75412971   0.09363996
H    2.01832914  -0.01241000   0.97497958
H    0.53156978   0.03415999   1.94874930
H    0.64487982  -2.06617928  -0.04989998
H    0.19555993  -0.00923000  -2.04750919
H    1.82429922  -0.03715999  -1.33491957
H   -1.53265941   1.21512961   0.98461962
H   -1.67789948   1.19034946  -0.78787971
H   -1.77518928  -1.15850961  -0.74891967
H   -1.62164938  -1.13390958   1.03206956

