%chk=mol_6778.chk
# wB97XD/Def2SVP opt freq pop=full gfinput

C 6 H 13 N 1

1 2
C    1.00422955   0.01906999  -0.02057999
C    2.52410889   0.00235000   0.03428999
C    3.09144878   1.09807956   0.92260963
N    4.46181822   0.64235973   1.18168950
C    4.35110855  -0.80551970   1.40651941
C    3.09852862  -1.27534962   0.65800977
C    3.40276885  -2.34272933  -0.38720986
H    0.62832975  -0.79481971  -0.64935976
H    0.64374977   0.96482962  -0.43861982
H    0.56556982  -0.09554996   0.97664964
H    2.91290879   0.13092995  -0.98520964
H    2.54383898   1.19158959   1.86681938
H    3.08673882   2.07435918   0.42630985
H    5.01418781   0.79210973   0.33546987
H    5.26459789  -1.31541955   1.08308959
H    4.23558855  -0.99300963   2.48051906
H    2.39151907  -1.69184935   1.38640952
H    4.12983847  -1.98489928  -1.12398958
H    2.49358892  -2.63424897  -0.92179966
H    3.81789875  -3.23762894   0.08738997

