%chk=mol_6297.chk
# wB97XD/Def2SVP opt freq pop=full gfinput

C 5 H 5 N 1 O 1

1 2
O    0.91879964   0.07937997  -0.02237999
C    2.14279914   0.05520998  -0.02276999
N    2.91261888   1.18633962  -0.01151000
C    4.28207827   1.20511961  -0.01142000
C    4.97935820   2.34739923   0.00000000
C    6.38535786   2.34739923   0.00000000
C    7.57551718   2.34739923   0.00000000
H    2.72024918  -0.88377964  -0.03224999
H    2.38963914   2.05530930  -0.00273000
H    4.78513861   0.23985991  -0.02112999
H    4.47656870   3.30941892   0.00968000
H    8.64093685   2.34853911   0.00001000

