%chk=mol_3978.chk
# wB97XD/Def2SVP opt pop=full gfinput

C 5 H 9 N 1 O 1

1 2
C    1.754478   0.017140   0.206623
C    4.626711   0.008920  -0.074304
C    5.975276   1.928541   1.678625
N    7.735405  -0.072622   2.482363
C    5.963144  -2.018057   1.560347
C    5.435892   0.057769  -2.917964
O    4.941804  -1.543944  -4.529730
H    1.175863  -0.016176   2.194029
H    0.920788  -1.637070  -0.716150
H    0.939950   1.712130  -0.657455
H    4.821920   2.666517   3.234247
H    6.884140   3.535961   0.745856
H    9.427163  -0.067010   1.555018
H    6.865337  -3.566612   0.526440
H    4.806216  -2.842999   3.068443
H    6.553514   1.730195  -3.469424

