%chk=mol_4048.chk
# wB97XD/Def2SVP opt freq pop=full gfinput

C 5 H 11 N 1 O 1

1 2
C    0.97870964   0.07937997   0.18431993
C    2.47188902  -0.10131996  -0.07496998
C    2.79227901  -0.06178998  -1.56805933
O    3.22771883   0.94959962   0.60484976
C    4.09587860  -0.04414998   1.21687949
C    3.11969876  -1.17108953   0.85347968
N    3.80657864  -2.23936915   0.11608995
H    0.76352972   0.16113994   1.25526953
H    0.41264984  -0.77248973  -0.20764993
H    0.60154980   0.98789960  -0.29734990
H    3.87199855  -0.06539997  -1.75220931
H    2.39141917   0.84810966  -2.02841926
H    2.35424924  -0.92119968  -2.08573914
H    5.07896805  -0.04736998   0.73389971
H    4.21728849   0.13473994   2.28886914
H    2.50443888  -1.51832938   1.68851948
H    4.45857811  -1.92369926  -0.60103977
H    3.17244887  -2.89317894  -0.34232986

