%chk=mol_2626.chk
# wB97XD/Def2SVP opt pop=full gfinput

C 6 H 12 O 1

1 2
C    3.531085  -1.221406  -2.447120
C    4.472944  -0.165200   0.055426
C    5.968492   2.288893  -0.278508
C    8.430975   1.969076  -1.749849
C    4.419238   4.635782  -1.052351
O    5.354804   6.050998   1.095947
C    6.349688   3.758495   2.213909
H    2.359342  -2.894248  -2.116569
H    5.099766  -1.787719  -3.669376
H    2.391864   0.168016  -3.472032
H    5.646010  -1.586897   1.000818
H    2.832057   0.157622   1.280951
H    9.528056   3.725198  -1.788834
H    8.069755   1.435058  -3.715202
H    9.618838   0.507996  -0.891478
H    2.359531   4.446507  -0.965726
H    4.948550   5.523991  -2.842734
H    8.304459   4.002874   2.844227
H    5.191494   3.165537   3.823955

