%chk=mol_6819.chk
# wB97XD/Def2SVP opt freq pop=full gfinput

C 7 H 10

1 2
C    1.11462963   1.20082963  -0.31864989
C   -0.18140994   1.55908942   0.40119985
C   -1.38163948   0.83210969  -0.11254995
C   -1.51278937  -0.49886981  -0.19661993
C   -0.54543984  -1.57999945   0.18435994
C    0.93112969  -1.30652952   0.15787995
C    1.62867939  -0.18500993  -0.07584997
H    1.88493919   1.90034926   0.03167999
H    1.02082968   1.36437953  -1.39924955
H   -0.08871996   1.39960945   1.48272943
H   -0.35728988   2.63419914   0.26777989
H   -2.22373915   1.45286942  -0.41295984
H   -2.47127914  -0.87415963  -0.55537981
H   -0.71555972  -2.41466904  -0.50892985
H   -0.81718969  -1.95040929   1.18009961
H    1.52323937  -2.20642924   0.33241987
H    2.71520901  -0.26942989  -0.08820997

