%chk=mol_4821.chk
# wB97XD/Def2SVP opt freq pop=full gfinput

C 5 H 11 N 1 O 1

1 2
C    3.04690886  -1.19594955  -0.36620986
C    2.41857910   0.10599996   0.10862996
O    1.84535933  -0.08970997   1.39823949
C    3.42813873   1.21534944   0.18947993
N    3.63866854   2.13095927  -0.93532968
C    2.97046876   2.65307903   0.25514990
C    3.68674874   3.63179851   1.11913967
H    3.48190880  -1.08584952  -1.36437953
H    2.29904914  -1.99508929  -0.39245987
H    3.83803844  -1.52444947   0.31756988
H    1.59837937   0.37491983  -0.56740981
H    2.55953908  -0.36240986   1.99899924
H    4.31752825   0.94038963   0.74526972
H    2.95972896   1.97492933  -1.68294930
H    1.91228926   2.87058878   0.17001994
H    4.76124811   3.42833877   1.17515957
H    3.28198862   3.59966874   2.13457918
H    3.55233860   4.64594841   0.73130977

