%chk=mol_7087.chk
# wB97XD/Def2SVP opt pop=full gfinput

C 6 H 13 N 1

1 2
C    1.576447  -0.243264   0.320819
C    4.384599   0.052270   0.503404
C    5.771639   2.145142   0.047243
C    4.594624   4.662805  -0.625386
C    8.648445   2.229971   0.223479
C    9.961635  -0.133377   1.263206
N    9.684978   2.804864  -2.278651
H    1.137086  -1.977768  -0.719438
H    0.643093   1.305120  -0.673536
H    0.760010  -0.407557   2.213228
H    5.333128  -1.693913   1.029126
H    2.579590   4.761770  -0.186384
H    4.834789   5.059534  -2.640873
H    5.490070   6.186756   0.452684
H    9.147900   3.792964   1.492355
H    9.674944  -1.781898   0.042991
H    9.264931  -0.594791   3.157203
H   12.004032   0.174497   1.422340
H    9.256672   1.349794  -3.466041
H   11.605375   2.858513  -2.176908

