%chk=mol_3780.chk
# wB97XD/Def2SVP opt pop=full gfinput

C 5 H 10 O 2

1 2
O    4.692530  -2.008288   0.952894
C    4.544999   0.041706  -0.811316
C    5.765290   2.406642   0.348239
O    4.714961   2.815541   2.799459
C    8.581813   2.139265   0.619566
C   10.350786   3.415151  -1.217683
C   10.151023   4.369500   1.449703
H    3.858462  -3.444045   0.161893
H    2.537581   0.388792  -1.171007
H    5.480811  -0.513514  -2.569744
H    5.306332   4.055371  -0.817382
H    4.729607   1.146119   3.590669
H    9.121783   0.311427   1.375437
H    9.570442   4.591959  -2.702082
H   12.061272   2.421533  -1.750208
H   11.709802   4.008714   2.728935
H    9.194444   6.150983   1.782352

