%chk=mol_3704.chk
# wB97XD/Def2SVP opt freq pop=full gfinput

C 5 H 6 O 2

1 2
O    1.15854955   0.31533989  -0.04389998
C    2.52075911  -0.08751997  -0.04308998
C    2.82378888  -0.79999965  -1.28699958
C    3.06449890  -1.39270949  -2.30452895
C    3.39413881   1.12527955  -0.06479998
C    3.70352840   1.87679935   1.20728958
O    4.65654850   0.99088961   0.60536975
H    0.98553962   0.70719975   0.82669967
H    2.70300913  -0.72263968   0.82987964
H    3.27464890  -1.91691935  -3.20769882
H    3.34777880   1.69497931  -0.98502964
H    3.24731898   1.56013942   2.13624907
H    3.90032840   2.93966889   1.13874948

