%chk=mol_7088.chk
# wB97XD/Def2SVP opt pop=full gfinput

C 6 H 9 N 1

1 2
C    1.603225  -0.472621   0.217867
C    4.409109  -0.124212   0.295496
C    5.733505   2.027865  -0.045580
C    4.564293   4.591373  -0.469446
C    8.603886   2.009629   0.061586
C    9.729406   2.599545  -2.414881
N   10.644317   3.077665  -4.349583
H    1.142415  -2.052318  -1.036704
H    0.582206   1.177658  -0.481653
H    0.899888  -0.928517   2.108027
H    5.438934  -1.876026   0.637386
H    2.535275   4.634270  -0.092975
H    4.863493   5.209597  -2.420437
H    5.425139   5.985235   0.796293
H    9.305389   0.165370   0.696175
H    9.241554   3.383933   1.475177

