%chk=mol_3100.chk
# wB97XD/Def2SVP opt freq pop=full gfinput

C 5 H 8 O 2

1 2
C    0.02469999   0.92849964  -0.29882988
C    1.30341947   0.23077992   0.03700998
C    2.47454906   0.52775979  -0.54620981
O    3.70565867  -0.02764999  -0.33774987
C    3.79128861  -1.07059968   0.62772977
C    5.22389793  -1.53859949   0.64037979
O    5.83238792  -1.84187925   1.66396940
H   -0.70029974   0.20798993  -0.68989974
H    0.16445994   1.71394932  -1.04838955
H   -0.39676985   1.38722944   0.60090983
H    1.22731960  -0.54214978   0.79450971
H    2.56409883   1.30112946  -1.30267954
H    3.16602874  -1.92111921   0.33619988
H    3.52881861  -0.70263976   1.62521935
H    5.68071795  -1.69688940  -0.35171989

