%chk=mol_2440.chk
# wB97XD/Def2SVP opt pop=full gfinput

C 6 H 8 O 1

1 2
C    1.680666   0.122190   0.114234
C    4.534398  -0.060792   0.012170
C    6.023691   1.773432   1.690322
O    7.586041  -0.275050   2.628987
C    5.775249  -2.111655   1.668326
C    7.064571  -4.119698   0.342305
C    8.124783  -5.798568  -0.756779
H    0.816059  -1.477048  -0.873828
H    1.029976   1.859509  -0.800753
H    0.979351   0.123815   2.060841
H    5.212054  -0.042141  -1.949479
H    4.976840   2.671619   3.232339
H    7.134831   3.190840   0.678204
H    4.588425  -2.798174   3.223722
H    9.077678  -7.285423  -1.724300

