%chk=mol_4052.chk
# wB97XD/Def2SVP opt freq pop=full gfinput

C 5 H 7 N 1 O 1

1 2
C    1.01504958  -0.02533999  -0.00568000
C    2.48498917   0.10056996  -0.00117000
N    3.22505879   1.19052958   0.00404000
C    4.51619816   0.71426976   0.00642000
C    5.66791773   1.63698936   0.01202000
C    4.49571848  -0.66074973   0.00219000
O    3.19674897  -1.06742966  -0.00264000
H    0.54298979   0.96146965   0.00285000
H    0.67496973  -0.57552975   0.87648970
H    0.67906976  -0.55828977  -0.89991963
H    6.61622763   1.09061956   0.02667999
H    5.63328791   2.28365922   0.89427966
H    5.65259790   2.27006912  -0.88056970
H    5.24500799  -1.43807948   0.00199000

