%chk=mol_0339.chk
# wB97XD/Def2SVP opt freq pop=full gfinput

C 5 H 11 N 1

1 2
C    0.89150971  -0.17440993   0.11049996
C    2.37417912   0.01749999   0.16163994
C    3.06954885   1.16036952  -0.00687000
C    2.44692922   2.51474905  -0.22976992
C    4.57860804   1.15768957   0.05807998
N    5.15117836   1.55527949  -1.22016954
H    0.65572977  -1.00678957  -0.56055975
H    0.34881985   0.69885975  -0.25683990
H    0.51439983  -0.42436984   1.10670960
H    2.92705870  -0.90432966   0.34210986
H    1.37339950   2.53322887  -0.02884999
H    2.60226917   2.84327888  -1.26221955
H    2.90018892   3.25374889   0.44010985
H    4.96480846   0.16796993   0.32765988
H    4.91225815   1.84968936   0.83933967
H    4.85436821   0.88530964  -1.92845929
H    6.16479778   1.47948945  -1.16610956

