%chk=mol_1824.chk
# wB97XD/Def2SVP opt pop=full gfinput

C 5 H 10 N 2

1 2
C    2.305919   0.240770  -0.418650
N    5.031188   0.104048   0.121831
C    5.962691  -2.264081   0.738921
N    8.216719  -3.157600   0.534490
C    6.516116   2.304351  -0.087154
C    8.737564   2.599337   1.697012
C    5.986690   4.240696  -1.648654
H    1.508757   2.057383   0.176519
H    1.245632  -1.224807   0.589103
H    1.974556  -0.005669  -2.446723
H    4.484887  -3.555501   1.445451
H    9.340028  -1.816518  -0.280719
H    8.292628   1.816745   3.560471
H    9.218424   4.592205   1.991204
H   10.424957   1.665680   0.957184
H    4.412737   4.190978  -2.958725
H    7.154730   5.927844  -1.696124

