%chk=mol_5607.chk
# wB97XD/Def2SVP opt pop=full gfinput

C 4 H 5 N 1 O 2

1 2
N    1.883282  -0.130693   0.256511
C    4.393840   0.152803   0.142693
C    5.948026   2.233354   0.048944
O    5.124843   4.635517   0.044957
C    8.455919   1.345107  -0.046412
C    8.269026  -1.252321  -0.018859
O    5.805692  -1.989995   0.086795
H    0.779871   1.376325  -0.174478
H    1.143398  -1.836814  -0.199196
H    6.555592   5.785604   0.015515
H   10.186645   2.421968  -0.129333
H    9.634031  -2.771435  -0.063892

