%chk=mol_2993.chk
# wB97XD/Def2SVP opt freq pop=full gfinput

C 5 H 10 O 2

1 2
C    0.99634963  -0.24189991   0.27803990
C    2.43656921  -0.07098997  -0.20589992
C    2.77272892  -1.12585962  -1.26507962
C    2.72368884   1.36166942  -0.68538976
O    4.11905861   1.49876952  -0.94969970
C    1.91351926   1.75305939  -1.91647923
O    2.43240905   1.97064924  -3.00965881
H    0.74982971   0.50501984   1.03975964
H    0.85669971  -1.23191953   0.72559977
H    0.27736992  -0.14572994  -0.54177982
H    3.09889889  -0.26632991   0.64863980
H    2.13826919  -1.02434957  -2.15160918
H    2.62440920  -2.13410926  -0.86329967
H    3.81749845  -1.04894960  -1.58304942
H    2.47753906   2.07993913   0.10412996
H    4.21404839   1.54267943  -1.92372930
H    0.82421970   1.84349930  -1.77164936

