%chk=mol_5992.chk
# wB97XD/Def2SVP opt freq pop=full gfinput

C 4 H 4 N 2 O 1

1 2
O    1.18883955  -0.21214992   0.41079983
C    2.36416912  -0.04457998   0.20514992
C    3.31654882   1.12967956  -0.06181998
C    4.26753855   0.04462998  -0.61016977
N    3.35907865  -0.95022964  -0.00190000
C    4.35103846  -0.07158998  -2.05342937
N    4.41245842  -0.16959994  -3.20839882
H    3.65343881   1.63482940   0.84807968
H    2.93838906   1.86091936  -0.78065968
H    5.24644804   0.03509999  -0.11743996
H    3.08523893  -1.85685933  -0.36021987

