%chk=mol_4970.chk
# wB97XD/Def2SVP opt freq pop=full gfinput

C 5 H 7 N 1 O 1

1 2
C    1.13356960   0.00014000   0.17250994
N    2.55585909   0.00493000  -0.06398997
C    3.31810856  -1.20587945  -0.17727993
C    4.67495823  -0.65837973  -0.45230985
C    4.69442844   0.67809975  -0.50433981
C    3.31685877   1.13486958  -0.26258990
O    2.96924877   2.29995918  -0.25444990
H    0.75473970   1.02134967   0.26359990
H    0.92928970  -0.54842985   1.09578967
H    0.63908970  -0.49569982  -0.66710973
H    2.94196868  -1.80957925  -1.00755966
H    3.27877879  -1.76187932   0.76302975
H    5.54436779  -1.28396940  -0.59462976
H    5.51835823   1.34370947  -0.68601978

