%chk=mol_4344.chk
# wB97XD/Def2SVP opt freq pop=full gfinput

C 5 H 7 N 1 O 1

1 2
C    1.00096965  -0.05404998   0.00303000
C    2.51999903   0.00000000   0.00000000
C    3.00201893   1.36116946   0.00000000
C    3.39929867   2.48306894   0.00000000
C    4.09752846   3.73556852   0.00000000
N    3.32591891   4.76422834   0.00000000
O    4.12806845   5.91362810   0.00000000
H    0.65746975  -1.09340966   0.00193000
H    0.58499974   0.44244984  -0.88058966
H    0.58871979   0.43932983   0.89012969
H    2.89558911  -0.53272974  -0.88084966
H    2.89920902  -0.53414983   0.87842965
H    5.19912815   3.74917841   0.00000000
H    3.47055864   6.63159752   0.00000000

