%chk=mol_3956.chk
# wB97XD/Def2SVP opt freq pop=full gfinput

C 5 H 7 N 1 O 1

1 2
C    1.01667964   0.03194999   0.06678997
C    2.49923897  -0.01735999  -0.01940999
C    3.25864887  -1.11676955  -0.10965995
C    4.65263844  -0.65847975  -0.16982993
O    5.63018751  -1.37321949  -0.25603989
N    4.62799788   0.71054977  -0.11045996
C    3.30591869   1.23830950  -0.01205000
H    0.57841974  -0.97087967   0.04046999
H    0.60467976   0.60152978  -0.77189970
H    0.70473975   0.51197982   0.99953961
H    2.97076893  -2.15215898  -0.13731995
H    5.48230791   1.24905956  -0.13677995
H    3.10498881   1.87646925  -0.87625968
H    3.20803881   1.79987931   0.92034966

