%chk=mol_1442.chk
# wB97XD/Def2SVP opt freq pop=full gfinput

C 5 H 10 N 2

1 2
C    1.23415947  -0.13161995   0.89140964
C    2.72182894  -0.06500997   0.60588974
C    3.05327892   1.22636950  -0.08891997
N    3.50445867   1.22266948  -1.30129957
N    3.73603868   2.47306919  -1.74733937
C    3.48409867   2.45971918  -3.18949866
C    4.88048840   2.39281893  -2.65710902
H    0.98443961  -1.06539965   1.40430951
H    0.65393972  -0.08215997  -0.03622999
H    0.91720963   0.70340973   1.52557945
H    3.02806878  -0.91217965  -0.01590999
H    3.28555870  -0.09925997   1.54325938
H    2.88734889   2.15828919   0.48429984
H    3.14037895   3.39580870  -3.60910869
H    3.04935884   1.56907940  -3.62696862
H    5.41996813   1.45581937  -2.72229910
H    5.49240780   3.28333879  -2.71218896

