%chk=mol_5212.chk
# wB97XD/Def2SVP opt pop=full gfinput

C 4 H 7 N 1 O 2

1 2
C    2.010990  -0.086398  -1.402309
N    4.724410  -0.157263  -1.403008
C    6.124054   0.644113   0.637121
O    5.278251   1.456223   2.622902
C    8.980073   0.439664   0.223668
C   10.626875   1.275905   2.370737
O    9.781430  -0.359898  -1.800399
H    1.323432  -0.875831  -3.180882
H    1.383790   1.872019  -1.205362
H    1.298469  -1.194042   0.189332
H    5.696882  -0.754246  -2.949485
H   10.171999   0.191845   4.068486
H   10.358156   3.294832   2.711096
H   12.607800   0.939307   1.888328

