%chk=mol_7067.chk
# wB97XD/Def2SVP opt pop=full gfinput

C 6 H 7 N 1

1 2
C    3.890644  -2.323929  -0.927799
C    5.706652  -0.906558   0.113289
C    6.246452   1.639734  -0.699142
C    8.066201   3.059013   0.353624
C    8.679248   5.712680  -0.457125
C    8.363512   7.488418   1.657800
N    8.136027   8.907337   3.315846
H    3.546109  -4.231097  -0.253828
H    2.704897  -1.640717  -2.455491
H    6.830698  -1.695273   1.644421
H    5.100069   2.400330  -2.228989
H    9.212018   2.289706   1.880693
H    7.484771   6.301557  -2.043323
H   10.638742   5.765233  -1.125030

