%chk=mol_3370.chk
# wB97XD/Def2SVP opt pop=full gfinput

C 6 H 12 O 1

1 2
C    7.400262   4.986402  -5.904544
O    9.359587   4.123042  -4.280816
C    8.746201   3.525605  -1.819013
C    6.426562   3.678257  -0.792683
C   10.993217   2.636584  -0.261822
C   12.094096   0.186403  -1.333070
C   13.027318   4.685198  -0.099135
H    8.233706   5.370262  -7.756986
H    6.576379   6.748741  -5.200469
H    5.947724   3.533145  -6.149339
H    4.779269   4.300620  -1.833658
H    6.109144   3.167805   1.168758
H   10.371611   2.234809   1.676017
H   12.838289   0.450227  -3.247702
H   10.655504  -1.301303  -1.407071
H   13.645032  -0.496374  -0.143109
H   13.834137   5.117038  -1.956717
H   14.575760   4.076101   1.132910
H   12.251964   6.438335   0.683722

