%chk=mol_6071.chk
# wB97XD/Def2SVP opt freq pop=full gfinput

C 6 H 7 N 1

1 2
C    0.98723960  -0.02510999   0.04960998
C    2.48018885  -0.01146000  -0.02658999
C    3.20465875   1.17962956  -0.09112997
C    4.59442854   1.13768959  -0.15777995
C    5.21515846  -0.10042996  -0.15683994
N    4.54984808  -1.27306950  -0.09420997
C    3.20113873  -1.20146954  -0.03023999
H    0.57472980   0.98871964   0.01561999
H    0.66058975  -0.48973981   0.98549962
H    0.56998974  -0.58408976  -0.79421973
H    2.69636893   2.14028907  -0.08997996
H    5.17950773   2.04893923  -0.20884992
H    6.29678774  -0.18425994  -0.20751993
H    2.69828892  -2.16372919   0.01985999

