%chk=mol_6834.chk
# wB97XD/Def2SVP opt freq pop=full gfinput

C 5 H 12 N 2

1 2
C    1.19148958  -0.12742995  -0.11652996
C    2.65986896   0.12465996  -0.14124994
N    3.46773887  -0.36314985  -1.24929953
C    3.32436872   1.10636961  -1.10030961
C    2.49752927   1.84252930  -2.12522936
C    4.54284859   1.86474931  -0.60435981
N    5.60078812   1.75577939  -1.60544944
H    0.67827976   0.69619972   0.38931987
H    0.98033965  -1.04732955   0.43910983
H    0.75823975  -0.23972991  -1.11498952
H    3.09419870   0.00739000   0.84731966
H    2.89345884  -0.69561976  -2.02416921
H    1.72790933   1.21288955  -2.58243918
H    3.12947893   2.21792912  -2.93709874
H    1.99957931   2.69860888  -1.65841937
H    4.90354824   1.45250940   0.34494987
H    4.29632854   2.91810894  -0.43310982
H    5.70466805   0.75945967  -1.81427932
H    6.48199749   2.04754925  -1.18875957

