%chk=mol_0531.chk
# wB97XD/Def2SVP opt freq pop=full gfinput

C 4 H 6 N 2

1 2
N    1.12562954  -0.03053999  -0.34275988
C    2.34737921   0.00024000   0.04289998
N    3.08552885  -1.08475959   0.41242984
C    4.47094822  -0.69068974   0.57677978
C    4.36990833   0.79836971   0.40789986
C    3.13974881   1.23315954   0.09923996
H    0.78736967  -0.99295962  -0.27791989
H    2.89992881  -1.95888925  -0.05930998
H    5.10656786  -1.13358963  -0.19533993
H    4.83775806  -0.95932966   1.57091939
H    5.22396803   1.45037937   0.52032977
H    2.77296901   2.22325921  -0.09510996

