%chk=mol_2933.chk
# wB97XD/Def2SVP opt pop=full gfinput

C 6 H 10 O 1

1 2
C    1.975463  -0.101951   0.143355
C    4.817630   0.144677  -0.333329
C    5.551430  -1.270331  -2.752556
C    8.379159  -1.547535  -2.957308
O    9.444851  -3.602668  -3.107258
C    5.512237   2.911067  -0.493937
C    7.151990   4.047964   1.064483
H    1.426139   0.883031   1.879654
H    1.438838  -2.089962   0.354210
H    0.871561   0.692547  -1.417257
H    5.806391  -0.724559   1.271427
H    4.876381  -0.294268  -4.449436
H    4.732592  -3.172415  -2.750458
H    9.473859   0.225312  -3.047713
H    4.600425   4.034017  -1.958777
H    8.101464   3.030025   2.571501
H    7.568920   6.048711   0.872694

