%chk=mol_2943.chk
# wB97XD/Def2SVP opt freq pop=full gfinput

C 7 H 14

1 2
C    0.96295965  -0.02296999   0.03593999
C    2.47846913  -0.00815000   0.01439999
C    3.17009878   1.04574966   0.91684967
C    4.25931835  -0.01097000   1.23286963
C    5.52564764   0.10108996   0.39531985
C    3.19991875  -1.09868956   0.86217964
C    3.64346862  -2.34661913   0.12357996
H    0.58009982  -0.88660967  -0.51519984
H    0.56381977   0.88089967  -0.43465984
H    0.57374984  -0.07288997   1.05752957
H    2.84529901   0.03819998  -1.02148962
H    2.58468890   1.33903944   1.79691935
H    3.50579882   1.95347929   0.40618983
H    4.53161812  -0.03575999   2.29535913
H    5.30793810   0.15417993  -0.67634970
H    6.17840767  -0.76074976   0.56793976
H    6.08485794   1.00227964   0.66841978
H    2.61528921  -1.39060938   1.74733937
H    4.19011831  -2.10883927  -0.79415971
H    2.77616906  -2.95562911  -0.15377994
H    4.29279804  -2.95820880   0.75812972

