%chk=mol_4397.chk
# wB97XD/Def2SVP opt pop=full gfinput

C 5 H 7 N 1 O 1

1 2
C    1.908359  -0.502875  -0.245249
C    4.703113  -0.076175  -0.210081
C    5.931888   2.150489   0.000000
C    4.643888   4.679415   0.133604
O    4.186707   5.348001   2.694107
C    8.588843   2.150489   0.000000
N   10.763937   2.150489   0.000000
H    1.406315  -1.902425   1.192852
H    1.334619  -1.239793  -2.089772
H    0.814245   1.203586   0.143940
H    5.815292  -1.809092  -0.350828
H    2.844113   4.702206  -0.885053
H    5.813686   6.159978  -0.719797
H    3.265296   3.964286   3.477285

