%chk=mol_3536.chk
# wB97XD/Def2SVP opt freq pop=full gfinput

C 6 H 8 O 1

1 2
O    0.87098968  -0.03558999   0.16504994
C    2.30532908  -0.01210999   0.02063999
C    3.04421902   1.05804956   0.87467968
C    4.10618830  -0.00256000   1.21658957
C    3.07617879  -1.08402956   0.84364969
C    2.61582923   0.01302000  -1.39672947
C    2.86938906   0.03373998  -2.57057905
H    0.70957971  -0.05155998   1.12216961
H    2.47246909   1.40414941   1.74418938
H    3.42423868   1.93616927   0.34338990
H    4.97961807   0.02005999   0.55495977
H    4.44848824  -0.01248999   2.25451922
H    3.48199892  -1.93466938   0.28731990
H    2.51537895  -1.47207952   1.70250928
H    3.08336902   0.05194998  -3.61410856

