%chk=mol_5295.chk
# wB97XD/Def2SVP opt freq pop=full gfinput

C 4 H 6 N 2 O 1

1 2
C    2.85254884  -1.18466949  -0.32500988
O    2.27859926   0.03727999   0.11779996
C    3.18196893   1.11355960   0.05712998
C    2.62104917   2.30308914   0.77034974
N    2.51928902   3.35910869   0.02866999
N    2.96569872   3.02193880  -1.28581953
C    3.31901884   1.77743936  -1.28040957
H    2.09419918  -1.96838927  -0.24753991
H    3.70271850  -1.45989943   0.30667987
H    3.16845870  -1.10864961  -1.36955941
H    4.15847826   0.85883969   0.47969982
H    2.35410905   2.26096916   1.83419931
H    3.71209860   1.24020958  -2.15254927

