%chk=mol_4582.chk
# wB97XD/Def2SVP opt freq pop=full gfinput

C 4 H 8 N 2 O 1

1 2
C    0.81235969  -0.08734997  -0.04966998
C    2.27383924  -0.38120985   0.09960996
C    2.80753899  -1.58404934  -0.16305995
O    3.01099873   0.69609976   0.63836974
C    4.23857832   0.95394963   0.12964995
N    4.98944807   1.85641921   0.67076975
N    6.19469786   1.98799932   0.05674998
H    0.66099977   0.71558976  -0.77737969
H    0.39115986   0.23092991   0.90983969
H    0.24924991  -0.96265966  -0.38911986
H    2.19497919  -2.39815903  -0.53921980
H    3.85477853  -1.80239928   0.01197000
H    4.51360846   0.35427988  -0.75312972
H    6.57730770   2.90984893   0.28907990
H    6.86705732   1.33935940   0.47689980

