%chk=mol_2016.chk
# wB97XD/Def2SVP opt freq pop=full gfinput

C 6 H 13 N 1

1 2
N    1.13856959   2.00314927   0.34092987
C    2.52115893   1.94962931  -0.11811996
C    3.38254881   1.17796946   0.87962967
C    4.82231855   1.10333967   0.38786986
C    5.67076826   2.40299916   0.45751983
C    6.86828756   1.51432943   0.84727967
C    5.84420824   0.49271980   1.38337958
H    0.58837980   2.56419921  -0.30898988
H    1.09343958   2.48129892   1.23958957
H    2.90225887   2.96894884  -0.24436991
H    2.55568910   1.46513939  -1.10008967
H    2.98865891   0.16109993   1.00053966
H    3.33944893   1.65846944   1.86504924
H    4.88430834   0.62036979  -0.59866977
H    5.36820793   3.10175872   1.24650955
H    5.77567768   2.95167899  -0.48201984
H    7.44622755   1.15089953  -0.01032000
H    7.55310726   1.93524933   1.58743942
H    6.09584808  -0.55833983   1.22028947
H    5.59469795   0.63865978   2.44108891

