%chk=mol_5079.chk
# wB97XD/Def2SVP opt freq pop=full gfinput

C 5 H 9 N 1 O 1

1 2
C    1.27627957  -0.42987984   0.03502999
N    2.72557902  -0.28256989  -0.00806000
C    3.09944868   1.10482955  -0.25861990
C    4.59186840   1.21297956  -0.23224992
C    5.32417822   1.64307940  -1.26954949
C    6.79423714   1.71856928  -1.17004955
O    7.47388744   2.10618925  -2.11295915
H    1.02226961  -1.47826946   0.22010991
H    0.81422973  -0.13436994  -0.91283965
H    0.84123969   0.16278994   0.84620965
H    3.09081864  -0.86391968  -0.76235974
H    2.69548917   1.75647926   0.52540982
H    2.69652891   1.44600940  -1.21988952
H    5.06893778   0.92200965   0.70167977
H    4.89232826   1.94402933  -2.21664906
H    7.23936701   1.40920937  -0.21020992

