%chk=mol_7131.chk
# wB97XD/Def2SVP opt pop=full gfinput

C 6 H 15 N 1

1 2
C    6.158504  -1.437175   3.152479
C    5.209786  -0.201898   0.714581
C    2.373590  -0.704868   0.416590
C    5.845755   2.661660   0.491707
C    4.665092   4.269458   2.600188
C    8.732217   3.081028   0.346273
N    9.373382   5.693613  -0.268738
H    8.212239  -1.279609   3.334837
H    5.701795  -3.457953   3.165367
H    5.290534  -0.595169   4.831425
H    6.148526  -1.164733  -0.865891
H    1.289058  -0.010016   2.036085
H    2.012351  -2.738327   0.258269
H    1.635993   0.194887  -1.295162
H    5.031868   3.319002  -1.303987
H    5.475085   3.815546   4.447149
H    2.619822   3.998925   2.703669
H    4.979787   6.285664   2.258506
H    9.549050   1.845998  -1.101276
H    9.626832   2.604156   2.149998
H    8.616716   6.160961  -1.975463
H   11.282062   5.854201  -0.457918

