%chk=mol_4218.chk
# wB97XD/Def2SVP opt freq pop=full gfinput

C 5 H 7 N 1 O 1

1 2
C    0.99885958   0.03922999   0.09803996
C    2.50275898  -0.03155999  -0.11613996
O    2.78069901  -1.14273953  -0.99971962
N    3.38070869  -0.66484970  -2.20154905
C    3.53316855   0.60983974  -2.07236934
C    3.06382895   1.15524960  -0.80727971
C    3.17242885   2.43367910  -0.43907982
H    0.72181976   0.87171966   0.75260973
H    0.63662976  -0.89212966   0.54767978
H    0.46683982   0.15100995  -0.85433966
H    3.02298880  -0.22023991   0.82871968
H    3.97837853   1.26592958  -2.83335876
H    2.81074905   2.76922894   0.52786982
H    3.62957859   3.17604899  -1.08600962

