%chk=mol_0833.chk
# wB97XD/Def2SVP opt pop=full gfinput

C 4 H 6 O 2

1 2
C    2.854847  -0.139273  -0.546055
O    5.482152   0.261954  -0.147247
C    6.336082   2.717634  -0.168885
C    4.953615   4.814701  -0.536172
C    9.112391   3.048053   0.267982
O   10.196679   5.094456   0.311899
H    2.503339  -2.176171  -0.470939
H    2.276024   0.536644  -2.414692
H    1.733238   0.754643   0.945751
H    2.935973   4.783029  -0.868027
H    5.831582   6.673757  -0.514327
H   10.148075   1.261128   0.557337

