%chk=mol_5652.chk
# wB97XD/Def2SVP opt pop=full gfinput

C 4 H 6 N 2 O 1

1 2
N    4.385449  -0.851775  -2.625888
C    4.498852   0.021297  -0.009978
C    5.471834   2.653648   0.018689
C    4.157832   4.895411   0.140482
O    5.857962   6.827977   0.098814
C    8.132002   5.640946  -0.066065
N    8.029843   3.159168  -0.117806
H    4.078218  -2.749986  -2.633107
H    6.136886  -0.596398  -3.399088
H    5.757882  -1.202962   1.085440
H    2.615948  -0.077309   0.840909
H    2.186016   5.409908   0.241677
H    9.785342   6.837823  -0.136230

