%chk=mol_1335.chk
# wB97XD/Def2SVP opt freq pop=full gfinput

C 5 H 8 N 2

1 2
C    0.92817968  -0.18355994   0.01265000
C    2.40558887  -0.40988985   0.01744999
C    2.98463869  -1.60830939   0.18146993
C    3.29084873   0.76943970  -0.17145993
N    2.83908916   1.97119915  -0.33808988
N    3.88476849   2.87758899  -0.49004984
C    3.42610860   4.07215834  -0.65480977
H    0.64130974   0.50355983   0.81535971
H    0.37464985  -1.11675966   0.16221994
H    0.60713983   0.24210991  -0.94364965
H    2.38602901  -2.50322914   0.32351989
H    4.06270838  -1.73811924   0.17992993
H    4.37788820   0.56682980  -0.16259995
H    4.12339830   4.91275787  -0.79042971
H    2.34810925   4.30769825  -0.66822976

