%chk=mol_6484.chk
# wB97XD/Def2SVP opt pop=full gfinput

C 4 H 5 N 1 O 1 S 1

1 2
C    1.765609   0.056314  -0.010110
C    4.575726   0.060339  -0.002872
N    5.796470   2.268522  -0.000340
S    8.883810   1.729213   0.007238
C    8.666699  -1.499403   0.006916
C    6.148016  -2.133746   0.000964
O    5.305992  -4.537497  -0.001002
H    0.996169   1.976824   0.007238
H    1.044546  -0.934904   1.656383
H    1.053806  -0.901494  -1.699960
H   10.327334  -2.683392   0.010885
H    6.710059  -5.722242   0.002702

