%chk=mol_6123.chk
# wB97XD/Def2SVP opt freq pop=full gfinput

C 4 H 5 N 1 O 2

1 2
O    2.16580915  -0.89919966  -0.40559986
C    1.81256926   0.26864991  -0.30671987
C    2.76805902   1.31937945   0.08951996
C    3.68714857   1.91554928  -0.91401964
N    2.56799889   2.65702891  -0.40633985
C    2.76949883   3.73858857   0.43672985
O    3.59786868   3.82151866   1.33357954
H    0.77368975   0.58501983  -0.49570981
H    3.12711883   1.24792945   1.11122954
H    3.59253860   1.64403939  -1.95639920
H    4.66323805   2.25531912  -0.59066975
H    2.06285930   4.55224800   0.20393993

