%chk=mol_2541.chk
# wB97XD/Def2SVP opt pop=full gfinput

C 5 H 10 O 2

1 2
C    1.957964   0.076742   0.076250
C    4.823431  -0.058922   0.044938
O    5.854674   1.965977   1.521324
C    8.341837   1.184669   2.228327
C    8.217304  -1.649051   2.634411
C    5.870283  -2.484593   1.212089
O    6.456439  -4.333804  -0.647930
H    1.126806  -1.444129  -1.049346
H    1.316723   1.891918  -0.682796
H    1.228454  -0.047243   2.008269
H    5.484231   0.170964  -1.907924
H    9.633446   1.655003   0.678544
H    8.945737   2.207295   3.918857
H    9.959537  -2.592648   2.041282
H    7.965328  -2.031040   4.655586
H    4.523702  -3.341848   2.530154
H    7.693264  -3.619015  -1.805123

