%chk=mol_4657.chk
# wB97XD/Def2SVP opt pop=full gfinput

C 5 H 9 N 1 O 1

1 2
C    1.625788   1.065787  -1.224013
C    3.115270   3.524944  -1.212448
N    5.328971   3.251557   0.430839
C    7.693756   2.858929  -0.934507
C    7.082901   5.392296   0.222288
C    8.288244   6.145862   2.627305
O    9.990245   7.716149   2.653875
H   -0.065044   1.262110  -2.401540
H    1.010304   0.553557   0.685819
H    2.754635  -0.495373  -1.983192
H    1.904088   5.030886  -0.467027
H    3.593541   4.040782  -3.163099
H    7.650348   2.683468  -2.974183
H    9.080172   1.670764  -0.006822
H    6.590930   6.931799  -1.035438
H    7.587269   5.249659   4.374319

