%chk=mol_1243.chk
# wB97XD/Def2SVP opt freq pop=full gfinput

C 7 H 8

1 2
C    0.94637960   0.00331000  -0.19617993
C    2.26934910   0.00834000   0.02747999
C    2.98310876   1.27421951   0.14358994
C    4.29411840   1.28051949   0.43154982
C    5.09677792   0.02014999   0.64239973
C    4.30519819  -1.24604952   0.43198982
C    2.99349880  -1.25039959   0.14374995
H    0.38551986  -0.92228961  -0.28692988
H    0.37788984   0.92324966  -0.28667989
H    2.44514894   2.20546913  -0.00243000
H    4.82161856   2.22520924   0.52094984
H    5.94715786   0.02398999  -0.04932998
H    5.49857759   0.02223999   1.66257942
H    4.83969784  -2.18643928   0.52152979
H    2.46318913  -2.18689919  -0.00189000

