%chk=mol_1775.chk
# wB97XD/Def2SVP opt freq pop=full gfinput

C 5 H 14 N 2

1 2
C    1.25720942  -0.16919994   0.31548986
N    2.69309902   0.04064999   0.18967994
C    3.08148885   1.46998942   0.23509991
C    2.61794901   2.17869925   1.51241946
C    4.62811804   1.62034941   0.02982999
C    5.45850801   1.08960950   1.20224953
N    5.05928802   0.92564964  -1.20209956
H    1.02810955  -1.21985948   0.11328995
H    0.69171971   0.43911982  -0.39862984
H    0.90876967   0.04235999   1.33035958
H    2.98542881  -0.30104989  -0.72818971
H    2.60055900   1.97415924  -0.61479974
H    2.91177893   1.62981939   2.41336918
H    1.52885950   2.29048920   1.52984941
H    3.04407883   3.18584871   1.57218945
H    4.85124826   2.68614912  -0.09806997
H    5.27320814   0.02560999   1.38682950
H    5.23967791   1.63684940   2.12511921
H    6.53072786   1.21219945   1.00729966
H    5.00611782  -0.07920997  -1.02789962
H    6.05041790   1.11391962  -1.35309947

