%chk=mol_2712.chk
# wB97XD/Def2SVP opt pop=full gfinput

C 6 H 8 O 1

1 2
C    1.889726   0.000000   0.000000
C    4.618491   0.000000   0.000000
C    6.867567   0.000000   0.000000
C    9.565888   0.117635   0.103973
O   10.805416  -1.000837  -2.035991
C   10.945464   1.694517  -1.827271
C   13.507215   2.707581  -1.293669
H    1.145136   1.929165   0.021978
H    1.145004  -0.983640   1.659652
H    1.145117  -0.945449  -1.681743
H   10.433122  -0.154353   1.937631
H    9.893208   2.812574  -3.174362
H   14.527931   1.563597   0.096962
H   13.363274   4.635876  -0.553066
H   14.629901   2.768506  -3.028740

