%chk=mol_4971.chk
# wB97XD/Def2SVP opt pop=full gfinput

C 5 H 9 N 1 O 1

1 2
C    2.110805  -0.031861   0.365454
N    4.726734   0.016592  -0.405233
C    6.231297   2.275533  -0.250880
C    8.650429   1.532908  -1.591830
C    8.907905  -1.281915  -1.032792
C    6.205974  -2.131554  -0.682418
O    5.504375  -4.321577  -0.563856
H    1.311073  -1.919168   0.105844
H    1.053617   1.330481  -0.772407
H    1.993151   0.485017   2.363065
H    6.566364   2.711455   1.744671
H    5.272582   3.857933  -1.170629
H    8.435265   1.811851  -3.635115
H   10.286346   2.631670  -0.969959
H    9.804711  -2.291387  -2.595029
H    9.944155  -1.611842   0.726089

