%chk=mol_7137.chk
# wB97XD/Def2SVP opt freq pop=full gfinput

C 6 H 11 N 1

1 2
C    0.93372965  -0.56570977   0.61103976
C    2.31916904  -0.42455983  -0.02613999
C    2.71368909  -1.74046934  -0.69789976
C    2.31881905   0.76446974  -1.00938964
C    3.65951872   1.05689955  -1.68852937
C    4.69701815   1.45684946  -0.72872972
N    5.51817799   1.77229929   0.02696999
H    0.65032977   0.35372984   1.13417959
H    0.92233962  -1.38115954   1.34205949
H    0.16841994  -0.77680975  -0.14371996
H    3.03407884  -0.22439991   0.78128970
H    2.07442927  -1.95300925  -1.56135941
H    2.62307906  -2.57712913   0.00339000
H    3.75306869  -1.71745932  -1.03889954
H    1.98921931   1.66542935  -0.47443983
H    1.57206941   0.58085978  -1.79304934
H    3.51298857   1.87191939  -2.40761900
H    3.99589849   0.19318992  -2.27092910

