%chk=mol_3004.chk
# wB97XD/Def2SVP opt pop=full gfinput

C 5 H 8 O 2

1 2
C    3.592426  -1.677567  -1.938198
C    3.304016   0.167203   0.251674
C    5.056567   2.400576   0.009940
C    4.253566   4.788509  -0.236537
O    7.665428   1.887666  -0.113365
C    8.721936   1.035324   2.082232
O    7.708646   0.697252   4.128957
H    2.254443  -3.241731  -1.732161
H    5.498725  -2.479037  -2.002524
H    3.218638  -0.750297  -3.749481
H    3.643978  -0.824847   2.036180
H    1.331860   0.806535   0.316605
H    2.257807   5.257218  -0.209136
H    5.584349   6.331074  -0.465534
H   10.743754   0.685196   1.727380

