%chk=mol_4039.chk
# wB97XD/Def2SVP opt pop=full gfinput

C 5 H 6 N 2

1 2
C   -2.865146   1.357693   0.593828
C   -2.228044  -1.172481  -0.544090
C   -0.432143  -2.887577   0.657001
C    2.002807  -2.308131   0.964875
C    2.616855   0.266792   0.108111
N    1.125729   1.860889  -1.005504
N   -1.274753   1.181098  -1.661674
H   -4.738167   2.114944   0.272574
H   -2.005699   1.928295   2.360967
H   -3.689879  -2.092607  -1.648975
H   -1.122592  -4.721802   1.262847
H    3.415756  -3.505329   1.814402
H    4.558435   0.888587   0.537079

