%chk=mol_1143.chk
# wB97XD/Def2SVP opt freq pop=full gfinput

C 5 H 6 S 1

1 2
C    0.88018966   0.08710996  -0.00811000
C    2.36892915   0.06052998  -0.00021000
C    3.24819875   1.12394953   0.00371000
C    4.60897827   0.70063978   0.01091000
C    4.72142839  -0.67147970   0.01220000
S    3.19458866  -1.44075942   0.00459000
H    0.50718981   1.11664963  -0.00027000
H    0.47673982  -0.42126983   0.87441969
H    0.48712981  -0.40425986  -0.90481967
H    2.93225884   2.16018915   0.00149000
H    5.46140766   1.36877954   0.01491999
H    5.62698746  -1.26234961   0.01717999

