%chk=mol_2290.chk
# wB97XD/Def2SVP opt pop=full gfinput

C 6 H 12 O 1

1 2
C    2.006870  -0.121925   0.029858
C    4.823224  -0.075759  -0.023603
C    6.338066  -1.326134  -2.108160
C    5.117964  -2.685395  -4.253584
C    6.197943   1.526521  -1.950745
C    8.463252   3.026718  -1.201809
O   10.024581   3.373501  -3.355568
H    1.305914   1.299754   1.358732
H    1.337000  -1.974008   0.661177
H    1.167208   0.278224  -1.817123
H    5.593381  -0.197835   1.873474
H    8.075688  -2.256616  -1.542961
H    3.516629  -1.646953  -5.048120
H    4.447414  -4.540426  -3.631789
H    6.492683  -2.977226  -5.771942
H    5.080529   2.527206  -3.348311
H    9.575583   2.095064   0.272990
H    7.894350   4.888381  -0.505710
H   10.378811   1.697976  -4.021375

