%chk=mol_4592.chk
# wB97XD/Def2SVP opt freq pop=full gfinput

C 4 H 8 N 2 O 1

1 2
C    1.86330926  -0.08851997  -0.07282997
C    3.30601859  -0.53086978   0.09797996
C    4.22980833   0.63638979   0.35144988
O    3.88968849   1.81102931   0.41462985
C    5.70693779   0.30196989   0.58736980
N    6.29109764  -0.82178968   0.07883997
N    6.43060780   1.12235963   1.28323948
H    1.21714950  -0.95436960  -0.24757992
H    1.76004922   0.59265977  -0.92412961
H    1.50263953   0.43371984   0.81942970
H    3.63225865  -1.04886961  -0.80916971
H    3.37798858  -1.21862948   0.94700962
H    6.01269770  -1.08587956  -0.85900968
H    7.30227757  -0.76672971   0.17356993
H    5.83245802   1.92167926   1.55325937

