%chk=mol_3246.chk
# wB97XD/Def2SVP opt freq pop=full gfinput

C 5 H 12 O 2

1 2
C    1.10347950  -0.22074993   0.37136987
C    2.61397910  -0.07503998   0.52151978
O    3.23947859  -1.02140963  -0.35352987
C    3.14481878   1.34209955   0.20592992
C    2.48923898   2.41326928   1.07884967
C    4.67339802   1.41035938   0.37484986
O    5.33576822   0.58564973  -0.57524979
H    0.56172979   0.36205989   1.12120962
H    0.80966967  -1.27076948   0.47929981
H    0.77633971   0.09661996  -0.62474972
H    2.89606905  -0.35660988   1.54248941
H    2.87210894  -0.88108969  -1.24658954
H    2.92442894   1.55853939  -0.84822971
H    2.62856913   2.19650912   2.14324927
H    1.41567945   2.48751926   0.88106966
H    2.92116880   3.39920878   0.87537968
H    4.97792816   1.09643960   1.37913942
H    5.03298807   2.43292904   0.21983992
H    4.93912792  -0.30686989  -0.48670980

