%chk=mol_1011.chk
# wB97XD/Def2SVP opt pop=full gfinput

C 4 H 11 N 1 O 1

1 2
C    1.798188  -0.184513  -0.198005
C    4.640544   0.063759   0.210251
N    6.023256  -1.322941  -1.784997
C    5.558214   2.842072   0.215259
C    4.581868   4.367837   2.446118
O    8.263621   2.845398   0.321197
H    0.744306   0.673461   1.360206
H    1.235579  -2.174924  -0.293871
H    1.203283   0.730889  -1.956679
H    5.156363  -0.820292   2.012577
H    5.460628  -0.678090  -3.515741
H    5.498291  -3.179691  -1.733805
H    5.017563   3.781285  -1.550464
H    5.111936   3.478079   4.238977
H    2.527150   4.580734   2.392374
H    5.429051   6.257110   2.451277
H    8.756745   1.330783  -0.626709

