%chk=mol_2274.chk
# wB97XD/Def2SVP opt freq pop=full gfinput

C 6 H 8 O 1

1 2
C    1.02889967   0.00453000  -0.02897999
C    2.35775900  -0.06826998  -0.00205000
C    3.29353857  -1.23366952   0.06397998
C    4.57921839  -0.39206985  -0.05535998
C    4.34706879   0.70787972  -1.14845967
C    3.29218864   1.07893956  -0.04333998
O    4.41539860   0.75687975   0.91426963
H    0.41996983  -0.89372963   0.00659000
H    0.51217979   0.95849967  -0.07603997
H    3.17865872  -1.91935921  -0.77917969
H    3.24537873  -1.76031935   1.02031958
H    5.55941772  -0.86623967   0.00017000
H    3.96504831   0.37061986  -2.11527920
H    5.16403818   1.42196941  -1.28948951
H    2.92730880   2.10339928   0.02759999

