%chk=mol_0955.chk
# wB97XD/Def2SVP opt pop=full gfinput

C 4 H 9 N 1 O 1

1 2
C    1.883584   0.048660   0.132262
C    4.743269  -0.068748   0.002721
N    5.990073   1.867163   1.606721
C    7.908806  -0.024548   2.346681
C    6.061731  -2.153494   1.589770
O    7.092029  -4.283650   0.234969
H    1.052521  -1.542413  -0.898244
H    1.178244   1.791989  -0.731551
H    1.187939  -0.030387   2.080872
H    5.402330  -0.002060  -1.964106
H    4.908091   2.464184   3.089287
H    9.635581   0.065744   1.204965
H    8.438591   0.024548   4.345047
H    4.924626  -2.815768   3.192655
H    8.081112  -3.551684  -1.131946

