%chk=mol_3461.chk
# wB97XD/Def2SVP opt pop=full gfinput

C 5 H 10 O 2

1 2
C    5.345261  -1.749433  -0.780211
O    5.126638   0.035376   1.221651
C    5.586522   2.588585   0.408294
C    4.384580   4.336449   2.404393
O    5.207802   3.681848   4.896866
C    8.396431   3.008368   0.234156
C    9.619821   3.723119  -1.864555
H    4.902762  -3.618523  -0.022771
H    7.269776  -1.791290  -1.529507
H    3.999076  -1.317064  -2.287362
H    4.652657   2.937598  -1.410548
H    2.327651   4.113953   2.382491
H    4.834770   6.324101   2.058101
H    5.213395   1.833393   4.919637
H    9.469210   2.702422   1.961933
H    8.638732   4.052574  -3.635398
H   11.654962   3.990856  -1.844656

