%chk=mol_1324.chk
# wB97XD/Def2SVP opt freq pop=full gfinput

C 5 H 14 N 2

1 2
C    0.96294963  -0.05240998   0.15892994
C    2.45164895  -0.11099996  -0.16894995
C    3.22343874   1.23402953  -0.07005997
C    2.62821913   2.28992915  -1.01385963
N    3.16572881   1.75617945   1.31304955
C    4.72054815   1.00322962  -0.45918983
N    5.46011782   0.22119993   0.54326975
H    0.52529979  -1.05220962   0.06582997
H    0.42295983   0.60494977  -0.52810979
H    0.78603971   0.28856987   1.18294954
H    2.55686903  -0.50914985  -1.18672955
H    2.91068888  -0.85392970   0.49611983
H    2.61806917   1.92797923  -2.04798937
H    3.21373892   3.21676898  -0.99351966
H    1.60097945   2.55434918  -0.74146974
H    3.43771863   0.99645960   1.93924928
H    2.20116901   1.97798932   1.55418932
H    5.23027802   1.96819925  -0.57268977
H    4.78297853   0.49049982  -1.42591941
H    5.45985794   0.77237970   1.40346956
H    6.43638754   0.16627993   0.25640988

