%chk=mol_6943.chk
# wB97XD/Def2SVP opt freq pop=full gfinput

C 5 H 8 N 2

1 2
C    1.44118953  -0.51566982  -0.70083976
C    1.81270933   0.73668969  -0.40351987
C    3.17322898   1.27324951  -0.49518982
C    3.70238876   1.69320941  -1.83430934
N    3.30660868   2.69550896  -0.84611970
N    4.44114828   3.14467883  -0.26985988
C    4.33825827   4.38550806   0.07062997
H    0.40715986  -0.82841969  -0.59732980
H    2.16004920  -1.24932957  -1.05110955
H    1.04767954   1.42639947  -0.04974998
H    3.87433863   0.87337971   0.23067991
H    3.05913877   1.61993945  -2.70166898
H    4.75781775   1.55872941  -2.03744936
H    5.19041824   4.88814831   0.55434978
H    3.43152881   4.99468803  -0.09389996

