%chk=mol_1913.chk
# wB97XD/Def2SVP opt freq pop=full gfinput

C 6 H 11 N 1

1 2
N    1.05041957   0.13266996   0.15074995
C    2.47989893  -0.06608998  -0.04090999
C    2.80771899  -1.50182950  -0.48398980
C    2.69813895  -1.48622954  -2.01345921
C    3.14516878  -0.10172996  -2.38802910
C    2.17686915   1.04347956  -2.44890904
C    2.96713877   0.78615969  -1.18571961
H    0.88178968   1.10509968   0.40300983
H    0.73147976  -0.43180984   0.93555969
H    3.01074910   0.17723994   0.88569969
H    2.17054915  -2.26414919  -0.02410999
H    3.84476876  -1.72976935  -0.20499992
H    3.33405876  -2.25539923  -2.46244907
H    1.66532946  -1.66176939  -2.33387923
H    4.07626867  -0.05815998  -2.93382883
H    2.44883895   1.90623927  -3.04599881
H    1.11532950   0.82384974  -2.45922899
H    3.77330875   1.45555949  -0.91939968

