%chk=mol_3096.chk
# wB97XD/Def2SVP opt pop=full gfinput

C 5 H 8 O 2

1 2
C    2.528869  -0.721516  -1.546042
C    4.336657  -0.132394   0.125459
C    5.736396   2.318581   0.187839
O    8.358183   1.744916  -0.019974
C    9.852427   3.977401  -0.050040
C   12.591585   3.217145  -0.270684
O   14.326184   4.364833   0.761919
H    1.600201  -2.550318  -1.479901
H    1.946569   0.583018  -3.017855
H    4.861037  -1.512140   1.555849
H    5.371962   3.276785   1.986593
H    5.160672   3.557806  -1.368880
H    9.583973   5.050860   1.697560
H    9.370472   5.130229  -1.698013
H   12.988257   1.661768  -1.601543

