%chk=mol_5461.chk
# wB97XD/Def2SVP opt freq pop=full gfinput

C 4 H 9 N 1 O 2

1 2
C    2.46664906   4.34461832   0.17918994
O    3.33020878   3.27667880  -0.20983993
N    3.77853847   3.52139854  -1.53497934
C    3.10137892   2.64441895  -2.47022915
C    5.14930773   3.69489861  -1.66891932
C    5.88297749   4.16196871  -0.43670985
O    5.74967766   3.51536870  -2.72913909
H    3.03198886   5.27590799   0.27929989
H    2.03040934   4.09382868   1.14996958
H    1.65454936   4.47429848  -0.54356980
H    3.38909888   1.60923934  -2.26167917
H    3.38967872   2.89474893  -3.49483871
H    2.01998925   2.75554895  -2.35627913
H    5.91921806   3.35776877   0.30253989
H    5.40066814   5.04600811  -0.01377999
H    6.90786743   4.43255854  -0.70742977

