%chk=mol_2968.chk
# wB97XD/Def2SVP opt freq pop=full gfinput

C 5 H 8 O 2

1 2
C    1.16597962  -0.52408981   2.27737927
C    1.30919957   0.09560996   1.09902954
C    2.27975917   1.21791959   0.84371966
C    3.31235886   0.85434967  -0.22614992
O    2.69857883   0.68211973  -1.51642942
C    2.47982907   1.82166934  -2.21659923
O    2.73995900   2.95949888  -1.86085927
H    0.44168982  -1.32406962   2.39835930
H    1.75948942  -0.25123993   3.14434886
H    0.68417972  -0.21165992   0.26191989
H    2.80646896   1.48162949   1.76810932
H    1.70334935   2.09698915   0.53433979
H    3.80818844  -0.09104997   0.02298999
H    4.09885836   1.61725938  -0.28001988
H    2.01586938   1.56389940  -3.18139887

