%chk=mol_4646.chk
# wB97XD/Def2SVP opt freq pop=full gfinput

C 4 H 6 N 2 O 1

1 2
C    0.15117994   0.46217981   0.27732992
C    0.76498973  -0.89849967   0.10892996
C   -0.17044994  -2.07754922   0.24639989
O   -1.35157943  -1.90662932   0.50707984
N    2.03726935  -1.00534964  -0.13893995
N    2.49114895  -2.31054926  -0.27280989
C    3.76137853  -2.32703900  -0.50523984
H    0.90712970   1.24156952   0.14653994
H   -0.27657989   0.54960978   1.27972949
H   -0.63557976   0.60475975  -0.46839985
H    0.27638993  -3.07140899   0.09633996
H    4.28187847  -3.28786874  -0.63796973
H    4.37267828  -1.41122949  -0.58050978

