%chk=mol_3944.chk
# wB97XD/Def2SVP opt pop=full gfinput

C 5 H 5 N 1 O 1

1 2
C    1.987784   0.086852   0.011074
C    4.806915  -0.073246   0.008145
C    6.126776  -2.239817  -0.000680
C    8.728929  -1.346732  -0.000340
O   10.671000  -2.544422  -0.006293
C    8.510930   1.471775   0.009562
N    6.174208   2.159655   0.014192
H    1.116923  -1.789608   0.000869
H    1.324566   1.107172  -1.660370
H    1.327249   1.087745   1.695689
H    5.513276  -4.170323  -0.006709
H   10.226102   2.635752   0.011679

