%chk=mol_1844.chk
# wB97XD/Def2SVP opt freq pop=full gfinput

C 4 H 5 N 3

1 2
C    1.88037920  -0.35543987  -0.55722982
N    2.56385899   0.72604972  -0.73646975
N    2.91717911   1.28930950   0.43862984
C    4.22582865   1.90855920   0.23320991
C    2.98022866   2.74744892   0.22403991
C    2.73233914   3.62570858   1.33130944
N    2.54623890   4.35263872   2.21758914
H    1.52372944  -0.92332965  -1.43087947
H    1.62195933  -0.76155972   0.43733984
H    4.73844814   1.73196936  -0.70503974
H    4.86919785   1.92678928   1.10436952
H    2.63456893   3.11476874  -0.73655975

