%chk=mol_5181.chk
# wB97XD/Def2SVP opt pop=full gfinput

C 4 H 10 N 2 O 1

1 2
C    2.341635  -0.248575   0.938551
N    4.632172   0.385466  -0.469880
C    5.384435  -1.643741  -2.187339
N    4.490821   2.760040  -1.704061
C    2.410894   3.386446  -3.382572
C    6.220298   4.603675  -1.007904
O    6.252499   6.795852  -1.759562
H    1.852517   1.274091   2.253763
H    2.644955  -1.949725   2.078812
H    0.719135  -0.584549  -0.302961
H    5.740289  -3.388147  -1.130699
H    7.150762  -1.159253  -3.153367
H    3.946674  -2.039109  -3.622586
H    1.800890   1.723581  -4.444541
H    2.990681   4.856502  -4.716360
H    0.841552   4.111156  -2.247678
H    7.639917   3.890322   0.342456

