%chk=mol_0960.chk
# wB97XD/Def2SVP opt pop=full gfinput

C 4 H 9 N 1 O 1

1 2
C    1.610840  -0.051363   0.130467
C    4.454481   0.003156  -0.011225
N    5.411514   0.069901  -2.633088
C    5.922836   1.935533   1.607174
O    7.730927   0.002948   2.362271
C    5.988523  -1.956056   1.511819
H    0.958942  -0.110417   2.094308
H    0.843196  -1.717515  -0.828721
H    0.782838   1.630475  -0.747765
H    7.341246   0.022488  -2.733413
H    4.882617   1.639148  -3.616633
H    4.917143   2.676173   3.258322
H    6.833647   3.500585   0.608246
H    6.953720  -3.438980   0.441251
H    5.010930  -2.808700   3.125380

