%chk=mol_6820.chk
# wB97XD/Def2SVP opt freq pop=full gfinput

C 5 H 8 N 2

1 2
C    1.00098956  -0.08658996   0.10191996
C    2.47277904   0.14176996  -0.17081994
C    3.02783895   1.26582944   0.63831973
N    4.04358864   0.94849968   1.37569940
N    4.42076874  -0.35994986   1.17054963
C    3.47276878  -1.25956953   1.81536937
C    3.35334873  -0.94559968   0.33820987
H    0.65285975  -1.00289965  -0.38609985
H    0.40553984   0.75202972  -0.27479991
H    0.79034972  -0.17722994   1.17334962
H    2.64853907   0.34507987  -1.23178947
H    2.58995914   2.27256894   0.59793979
H    3.87350845  -2.22549915   2.09759927
H    2.78033900  -0.83566964   2.53171897
H    3.65956855  -1.67841935  -0.39348984

