%chk=mol_7072.chk
# wB97XD/Def2SVP opt pop=full gfinput

C 6 H 7 N 1

1 2
C    2.975752  -1.258633   2.102944
C    4.384089  -0.616882   0.099551
C    5.698034   1.877462  -0.195568
C    8.510609   1.542508  -0.318967
C    9.932609   2.215590  -2.308282
C   12.598747   1.881638  -2.344375
N   14.773255   1.618097  -2.384268
H    2.063411  -3.094653   2.199263
H    2.699682   0.016592   3.686497
H    4.588727  -1.966298  -1.439858
H    5.254894   3.138986   1.387664
H    4.982924   2.799516  -1.908264
H    9.401123   0.716471   1.344597
H    9.086030   3.049753  -3.978081

