%chk=mol_4003.chk
# wB97XD/Def2SVP opt freq pop=full gfinput

C 5 H 7 N 1 O 1

1 2
C    1.04355955  -0.01947999   0.11598995
C    2.38137913  -0.00427000   0.03465999
C    3.22490883   1.22865963  -0.02926999
N    4.41718864   0.74482971  -0.64280981
C    4.50698805  -0.62563980  -0.68790972
O    5.48452806  -1.23998952  -1.08649957
C    3.23608899  -1.23093951  -0.14525995
H    0.48849982  -0.95318967   0.10499996
H    0.46950981   0.89926970   0.19191992
H    3.47591853   1.60335934   0.96685964
H    2.79577899   2.02082920  -0.64748979
H    5.20540810   1.31736958  -0.91397965
H    2.81430888  -1.93042934  -0.87085968
H    3.44786882  -1.71504939   0.81157970

