%chk=mol_6365.chk
# wB97XD/Def2SVP opt freq pop=full gfinput

C 5 H 5 N 1 O 1

1 2
O    0.99196965   0.08314997   0.00000000
N    2.38783908  -0.04326998   0.00000000
C    2.91013885   1.13219953   0.00000000
C    4.34290838   1.10055959   0.00000000
C    5.53306770   1.10055959   0.00000000
C    6.93906736   1.10055959   0.00000000
C    7.64264727   2.23828912  -0.00000000
H    0.69916975  -0.84774971   0.00000000
H    2.36664915   2.08936930  -0.00000000
H    7.45296717   0.14354995  -0.00000000
H    7.15936708   3.21054888   0.00000000
H    8.72682762   2.21658897   0.00000000

