%chk=mol_6583.chk
# wB97XD/Def2SVP opt freq pop=full gfinput

C 7 H 8

1 2
C   -0.00593000   0.02696999  -1.34722948
C    0.03262999  -1.11315966  -0.31944990
C    1.26070952  -0.65406978   0.44971982
C    1.22630954   0.69455969   0.47869980
C   -0.02459999   1.12296963  -0.27094990
C   -1.23868954   0.63158977   0.50064981
C   -1.20396960  -0.71814972   0.47123984
H    0.87836969   0.06393997  -1.99826932
H   -0.90237969   0.01789999  -1.98248923
H    0.05470998  -2.11270928  -0.75043970
H    1.98334920  -1.29576945   0.92827964
H    1.91573930   1.35109949   0.98517966
H   -0.05451998   2.13991928  -0.65908974
H   -1.95141935   1.25157964   1.01950967
H   -1.88356936  -1.39584947   0.96267968

