%chk=mol_4591.chk
# wB97XD/Def2SVP opt freq pop=full gfinput

C 4 H 10 N 2 O 1

1 2
C    1.22288954  -0.10661995   0.22645991
C    2.50818920   0.37242988  -0.43995982
C    2.85866904  -0.49739981  -1.64881945
O    4.18377829  -0.22224993  -2.09809923
C    2.42671919   1.82622933  -0.89226967
N    1.26677954   2.37388921  -1.34474945
N    3.48371863   2.57171917  -0.91260964
H    0.92843962   0.56655973   1.03863966
H    1.35882950  -1.10754955   0.65012974
H    0.39168984  -0.15830994  -0.48541981
H    3.32137895   0.30797988   0.29485989
H    2.16946936  -0.33973989  -2.48570895
H    2.82643890  -1.55799949  -1.37856948
H    4.17183828   0.67574972  -2.48283911
H    0.40148985   2.07822919  -0.91147971
H    1.34072948   3.38397861  -1.43109953
H    4.29868841   2.04838920  -0.56537980

