%chk=mol_6441.chk
# wB97XD/Def2SVP opt freq pop=full gfinput

C 4 H 5 N 1 O 1 S 1

1 2
C    0.86385965   0.11406996  -0.00852000
C    2.34825897   0.03817999  -0.00074000
C    3.21569872   1.05835962   0.00558000
N    4.52689838   0.66610974   0.01230000
C    4.75883818  -0.68795973   0.01181000
O    5.84105778  -1.24845946   0.01723999
S    3.18721890  -1.49757946   0.00177000
H    0.51794982   1.15298963  -0.00526000
H    0.44620982  -0.37887987   0.87527966
H    0.45610982  -0.37020987  -0.90166968
H    2.96984887   2.11222911   0.00574000
H    5.30790806   1.30616951   0.01759999

