%chk=mol_3881.chk
# wB97XD/Def2SVP opt pop=full gfinput

C 5 H 7 N 1 O 1

1 2
C    1.937083   2.252932  -0.266848
O   -0.375224   2.269580   1.137445
N   -2.416072   1.614412  -0.433163
C   -2.669068  -0.823165  -0.567882
C   -0.994298  -2.766559   0.705076
C    1.756293  -2.537354   0.041801
C    3.011014  -0.373353  -0.429006
H    3.268867   3.462942   0.753113
H    1.663602   3.060487  -2.154080
H   -4.257987  -1.566148  -1.690795
H   -1.662883  -4.616752   0.055086
H   -1.272183  -2.694882   2.751989
H    2.801519  -4.305118  -0.061511
H    4.999894  -0.478384  -0.934318

