%chk=mol_6093.chk
# wB97XD/Def2SVP opt pop=full gfinput

C 4 H 5 N 1 O 2

1 2
O    1.767385   0.048679  -0.403475
C    4.066993   0.060887  -0.134208
N    5.497025   2.207219  -0.256058
O    7.906179   2.196032   0.910961
C    9.424367   0.180053  -0.072093
C    8.023003  -2.267482   0.107941
C    5.492565  -2.329352   0.167430
H    4.572665   3.883142  -0.241809
H   11.134418   0.089119   1.087122
H    9.979568   0.594130  -2.022442
H    9.106458  -4.004292   0.196324
H    4.407427  -4.057053   0.291245

