%chk=mol_6707.chk
# wB97XD/Def2SVP opt freq pop=full gfinput

C 3 H 4 O 3 S 1

1 2
O    0.96830958  -0.03296999   0.25545990
S    2.40974927   0.05982998   0.13652995
O    3.27051878   0.24730991   1.28761959
C    3.02244878  -1.32463944  -0.85575974
C    3.46655869  -0.67668974  -2.13273907
C    3.31249881   0.64533979  -2.13714910
O    2.77758884   1.19343960  -0.99635965
H    2.20598912  -2.03082919  -1.01855958
H    3.85694838  -1.79343927  -0.33048987
H    3.87082863  -1.23978949  -2.96296883
H    3.54869866   1.35188949  -2.91550875

