%chk=mol_3198.chk
# wB97XD/Def2SVP opt pop=full gfinput

C 7 H 10

1 2
C    1.889726   0.000000   0.000000
C    4.618491   0.000000   0.000000
C    6.867567   0.000000   0.000000
C    9.596332   0.000000   0.000000
C   10.625250  -1.544568  -2.215307
C   10.538871   2.687096  -0.150252
C   11.995528   3.797272   1.598652
H    1.145231   1.929203   0.021789
H    1.145061  -0.983470   1.659746
H    1.145212  -0.945619  -1.681667
H   10.272759  -0.877778   1.753156
H   10.000695  -0.783556  -4.037664
H    9.976034  -3.507218  -2.107045
H   12.694500  -1.561519  -2.207710
H    9.977905   3.777166  -1.804934
H   12.602640   2.805374   3.287670
H   12.602130   5.744786   1.373472

