%chk=mol_6106.chk
# wB97XD/Def2SVP opt pop=full gfinput

C 5 H 5 N 1 O 1

1 2
O    1.695708  -0.277620   0.011584
C    4.276639  -0.064629  -0.001361
C    5.468886   2.146805  -0.002513
C    4.512402   4.673104   0.008220
C    6.562282   6.165156   0.000850
N    8.855389   4.895544  -0.014022
C    8.232289   2.512674  -0.016460
H    1.255402  -2.064677   0.009146
H    5.242440  -1.868316  -0.010526
H    2.557593   5.232198   0.019729
H    6.532878   8.211597   0.005631
H    9.537448   0.899151  -0.026626

