%chk=mol_0843.chk
# wB97XD/Def2SVP opt pop=full gfinput

C 4 H 6 O 2

1 2
C    5.109668  -3.132164  -1.776664
O    7.444047  -1.975557  -1.074290
C    7.338997   0.584209  -0.988610
O    5.503582   1.903521  -1.437137
C    9.864465   1.524196  -0.252316
C   10.308928   4.004783  -0.021694
H    5.368674  -5.181629  -1.721937
H    4.587065  -2.588925  -3.702824
H    3.613100  -2.627381  -0.440495
H   11.329551   0.136004   0.088647
H    8.837606   5.396850  -0.364642
H   12.163184   4.693380   0.517237

