%chk=mol_6091.chk
# wB97XD/Def2SVP opt freq pop=full gfinput

C 4 H 5 N 1 O 2

1 2
O    1.37420940   0.14231995   0.68259972
C    2.41308904  -0.06911997   0.08220997
N    2.87546897  -1.26509953  -0.39343986
O    4.22040844  -1.19881952  -0.85370970
C    4.61452818   0.18992993  -0.70008975
C    3.95423865   1.20627952  -1.58501947
C    3.42350864   0.96194965  -0.19432992
H    2.50693917  -2.15165925  -0.08007997
H    5.59186745   0.40833986  -0.28941989
H    4.47946835   2.13593912  -1.76780939
H    3.37386870   0.85291964  -2.42939925
H    3.58748865   1.70862937   0.56939983

