%chk=mol_4458.chk
# wB97XD/Def2SVP opt pop=full gfinput

C 5 H 11 N 1 O 1

1 2
C    5.566623  -1.960062  -1.720501
C    4.597950  -0.160986   0.307912
C    5.846680   2.465620   0.206264
N    4.557471   4.161612   1.977391
C    8.641907   2.336571   0.744420
C   10.037601   4.136591   2.467037
O    9.301308   1.661220   3.293093
H    4.514310  -3.739466  -1.649580
H    7.567030  -2.405886  -1.450233
H    5.323774  -1.148557  -3.608526
H    4.892633  -1.031412   2.166344
H    2.548957   0.034431   0.054670
H    5.601980   3.256716  -1.693440
H    4.832899   3.472599   3.761878
H    2.659695   4.088668   1.675337
H    9.705879   1.480128  -0.778643
H    9.053848   5.745807   3.259929
H   12.029902   4.460283   2.118459

