%chk=mol_6644.chk
# wB97XD/Def2SVP opt freq pop=full gfinput

C 4 H 5 N 1 O 1 S 1

1 2
N    0.98410964  -0.00697000  -0.07505997
C    2.33490920   0.00941000  -0.03572999
C    3.07549906   1.16855955  -0.03044999
S    4.76208830   0.85756969   0.03767999
C    4.50370836  -0.83710974   0.05020998
C    3.16600895  -1.14253950   0.00274000
O    2.74852896  -2.42115903  -0.01897999
H    0.45935982   0.85722965   0.03863999
H    0.44247985  -0.81919968   0.20122993
H    2.72263885   2.18952918  -0.05721998
H    5.34008789  -1.52048934   0.08110997
H    1.79093933  -2.43401909  -0.17295994

