%chk=mol_6297.chk
# wB97XD/Def2SVP opt pop=full gfinput

C 5 H 5 N 1 O 1

1 2
O    1.736280   0.150006  -0.042292
C    4.049305   0.104332  -0.043029
N    5.504054   2.241858  -0.021751
C    8.091958   2.277347  -0.021581
C    9.409627   4.435943   0.000000
C   12.066582   4.435943   0.000000
C   14.315659   4.435943   0.000000
H    5.140528  -1.670102  -0.060944
H    4.515765   3.883973  -0.005159
H    9.042604   0.453270  -0.039930
H    8.459492   6.253898   0.018293
H   16.329010   4.438097   0.000019

