%chk=mol_1306.chk
# wB97XD/Def2SVP opt freq pop=full gfinput

C 5 H 10 N 2

1 2
C    0.62459975   0.64880979   1.09585953
C    2.10777926   0.80236971   1.21034956
C    2.89050889   1.24659956   0.21435992
C    4.37697840   1.40109944   0.30320990
N    4.67503834   2.79801893   0.09948996
C    5.91235781   3.24203897  -0.22554991
N    6.29256773   4.46702862  -0.18767992
H    0.34434989  -0.39751986   1.25331950
H    0.25009990   0.95887959   0.11471996
H    0.12738995   1.25719953   1.85791922
H    2.54489899   0.52784979   2.16718912
H    2.44555902   1.50911951  -0.74372971
H    4.84735823   0.78455973  -0.47020981
H    4.76092815   1.07720959   1.27666950
H    4.05803871   3.44526863   0.57356977
H    6.61231756   2.45339918  -0.54979980
H    5.51431751   5.05871773   0.11011995

