%chk=mol_6349.chk
# wB97XD/Def2SVP opt pop=full gfinput

C 5 H 9 N 1 O 1

1 2
O    1.473816   3.081576  -0.701126
N    4.014326   3.774955  -0.934243
C    5.408396   1.978600  -0.035187
C    8.321220   2.139982  -0.033751
C    9.663266   4.064839  -1.796638
C   11.640241   4.425947   0.310709
C    9.594460   3.562871   2.192989
H    0.600990   4.534908  -1.426554
H    4.572022   0.229828   0.737598
H    9.126092   0.235422  -0.265053
H    8.577694   5.780502  -2.207918
H   10.391283   3.295361  -3.570486
H   13.248549   3.128479   0.174573
H   12.343862   6.350274   0.565557
H   10.263632   2.377332   3.747119
H    8.464159   5.115564   2.970404

