%chk=mol_0472.chk
# wB97XD/Def2SVP opt pop=full gfinput

C 5 H 11 N 1

1 2
C    4.250258  -1.472512  -2.548371
N    3.426130   0.646513  -0.991898
C    5.542983   2.123410   0.081013
C    6.973619   0.867347   2.209071
C    6.977492   3.900074  -1.632610
C    5.172313   4.951328   0.282760
H    5.397209  -0.839983  -4.148875
H    2.593441  -2.454830  -3.301919
H    5.331012  -2.847288  -1.445886
H    2.273681   1.774415  -2.046271
H    8.358845   2.144990   3.068367
H    8.003122  -0.791172   1.523252
H    5.668819   0.259800   3.696947
H    6.447349   4.012777  -3.607601
H    8.983437   4.163256  -1.306292
H    5.954508   5.931529   1.903805
H    3.420726   5.771394  -0.391721

