%chk=mol_1435.chk
# wB97XD/Def2SVP opt freq pop=full gfinput

C 4 H 7 N 3

1 2
C    0.96769965  -0.07437997  -0.03364998
C    2.48781896   0.01311000   0.04631998
C    3.11799884  -0.76986969  -1.02396965
N    3.60779858  -1.37796950  -1.88441932
C    2.92100883   1.47478938  -0.03442999
N    2.82812905   2.18297911  -1.19726956
N    3.36090875   2.11380935   1.00424957
H    0.50104982   0.52149981   0.75847971
H    0.62825972  -1.11044955   0.07557997
H    0.58969980   0.29858989  -0.99284965
H    2.80895901  -0.39034984   1.01412964
H    2.97078872   1.69367933  -2.07522917
H    3.32832885   3.06668878  -1.14832950
H    3.38015866   1.52047944   1.83997941

