%chk=mol_3805.chk
# wB97XD/Def2SVP opt pop=full gfinput

C 5 H 7 N 1 O 1

1 2
C   -2.114471  -0.003288  -1.923439
C   -1.049081   1.887666   0.067690
C   -1.988086  -0.074928   2.051562
C   -1.073251  -1.983305  -0.002419
C    1.856240  -2.095309  -0.096452
N    3.157203  -0.022337  -0.100496
O    1.684313   2.252138  -0.013077
H   -4.171287   0.015723  -2.162187
H   -1.211825   0.029158  -3.781229
H   -2.011746   3.715296   0.131147
H   -0.969316  -0.109453   3.848711
H   -4.025797  -0.067728   2.421306
H   -1.993793  -3.829700  -0.006501
H    2.784153  -3.955650  -0.159058

