%chk=mol_4608.chk
# wB97XD/Def2SVP opt freq pop=full gfinput

C 4 H 9 N 1 O 2

1 2
C    0.71070975  -1.01395965  -0.30415988
C    2.03917933  -0.32350987  -0.01523999
C    3.13183880  -0.85026968  -0.93752968
O    1.91248930   1.08806956  -0.26791990
C    1.40874946   1.82541931   0.74571973
N    1.33330953   3.12180877   0.37355986
O    1.06000960   1.41927946   1.84161925
H   -0.07686997  -0.63720971   0.35654989
H    0.78836972  -2.09642911  -0.16424994
H    0.38112983  -0.81452966  -1.32983947
H    2.34533906  -0.50304979   1.02275956
H    2.88760877  -0.65759975  -1.98813915
H    3.28218889  -1.92578924  -0.80306971
H    4.07892847  -0.33799988  -0.73623973
H    1.62240934   3.39593863  -0.55182981
H    0.96278960   3.79728842   1.02386963

