%chk=mol_7042.chk
# wB97XD/Def2SVP opt pop=full gfinput

C 6 H 7 N 1

1 2
C    1.839611  -0.056541  -0.141219
C    4.372902   0.000000   0.000000
C    5.701379  -2.300987   0.000000
C    6.825918  -4.248747   0.000000
C    5.926767   2.305447   0.032503
C    5.190265   4.531658   1.661277
N    7.303772   2.924408   2.358208
H    0.740017   1.671293  -0.197117
H    0.805609  -1.827838  -0.194642
H    7.836732  -5.988372   0.015363
H    6.908121   2.703480  -1.725320
H    3.545995   4.400171   2.872459
H    5.640455   6.415337   1.000308
H    8.995379   3.742395   1.926462

