%chk=mol_4552.chk
# wB97XD/Def2SVP opt freq pop=full gfinput

C 5 H 11 N 1 O 1

1 2
C    1.05504966  -0.20156993  -0.13870995
C    2.57523918  -0.12107996  -0.11330996
C    3.08258891   1.27702951   0.25779992
O    2.62021899   1.60539937   1.56861949
C    4.59041834   1.33100951   0.21489993
C    5.36404800   2.36568904   0.99465960
N    5.35245800   0.96355969   1.41419947
H    0.73680973  -1.20989954  -0.41980982
H    0.63838977   0.50187981  -0.86603969
H    0.62687975   0.02335999   0.84339970
H    2.96727896  -0.41279984  -1.09463966
H    2.94534898  -0.85453969   0.61333978
H    2.67559910   2.02126932  -0.43606985
H    3.27780890   1.20252955   2.17088914
H    4.99291801   1.02422965  -0.74410975
H    4.82462835   3.05830884   1.62961936
H    6.29327726   2.74133897   0.58439976
H    6.22798777   0.50214982   1.15601957

