%chk=mol_4846.chk
# wB97XD/Def2SVP opt pop=full gfinput

C 5 H 13 N 1 O 1

1 2
C    5.974256  -2.196826  -0.343628
C    4.998401  -0.073869   1.339910
O    5.657972  -0.642753   3.889888
C    5.973349   2.570103   0.560342
C    4.712750   4.624727   2.174300
C    8.878179   2.831849   0.626104
N    9.975864   2.304275   3.110697
H    5.559177  -1.830653  -2.336061
H    5.084950  -3.989760   0.189747
H    8.011815  -2.478489  -0.118713
H    2.929265  -0.080030   1.242041
H    7.436545  -0.138536   4.077349
H    5.383811   2.899917  -1.402895
H    5.134367   4.407540   4.187747
H    2.655538   4.558738   1.952030
H    5.343409   6.506894   1.587181
H    9.420266   4.746463   0.047678
H    9.724493   1.543037  -0.754379
H    9.452165   3.699592   4.341495
H   11.897791   2.446402   2.982593

