%chk=mol_1140.chk
# wB97XD/Def2SVP opt freq pop=full gfinput

C 4 H 7 N 1 O 1

1 2
O    0.88815969   1.06672966  -0.98309964
N    2.22803903   0.66548979  -1.06599963
C    2.92116880   1.35666955  -0.22525991
C    4.37063837   1.08987951  -0.14335994
C    5.27919817   1.52176952  -1.26893950
C    5.33531809   2.23387909   0.05089998
H    0.46126986   0.49832982  -1.65163934
H    2.48773885   2.12628937   0.43750983
H    4.61683846   0.15347993   0.34712988
H    4.83823776   2.03923917  -2.11343932
H    6.09919786   0.86434972  -1.53291953
H    6.20054770   2.06490922   0.68199974
H    4.94671822   3.24510860   0.09393997

