%chk=mol_2869.chk
# wB97XD/Def2SVP opt freq pop=full gfinput

C 6 H 14 O 1

1 2
C    0.23852991   1.70925939   0.82596970
C    1.58844936   1.01050961   0.83708966
C    2.71983910   1.97252929   0.47636983
C    4.07315826   1.26476955   0.48152983
C    5.20772791   2.21360898   0.11577996
O    6.43170738   1.47944951   0.14365995
C    7.53869724   2.29077935  -0.22749992
H   -0.55632979   1.00341964   1.08783960
H    0.01581999   2.11841917  -0.16539994
H    0.21491992   2.53095913   1.54978943
H    1.56702936   0.17743993   0.12582995
H    1.76449943   0.58489978   1.83112931
H    2.73776889   2.80446887   1.19130945
H    2.53457904   2.40324903  -0.51546979
H    4.06355858   0.42309985  -0.22281992
H    4.26894855   0.82693970   1.46874952
H    5.26156807   3.03773880   0.83609968
H    5.04954815   2.62494922  -0.88760966
H    8.44533730   1.68432939  -0.16459994
H    7.63751698   3.14073873   0.45359981
H    7.42432690   2.64293909  -1.25671959

