%chk=mol_1110.chk
# wB97XD/Def2SVP opt pop=full gfinput

C 4 H 9 N 1 O 1

1 2
O    1.885361   0.077252   0.053536
C    4.562328   0.033505   0.011943
C    5.632442   2.142836   1.624881
C    8.249033   1.164015   2.245996
N    7.878873  -1.538653   2.715914
C    5.696277  -2.346020   1.204908
H    1.292705  -1.417805  -0.836128
H    5.210258   0.238465  -1.946531
H    4.499740   2.413067   3.341584
H    5.675660   3.947921   0.616637
H    9.522292   1.434869   0.635609
H    9.063712   2.108934   3.892760
H    9.458098  -2.532573   2.246563
H    6.272114  -3.685400  -0.267037
H    4.329854  -3.312180   2.424235

