%chk=mol_3771.chk
# wB97XD/Def2SVP opt freq pop=full gfinput

C 5 H 10 O 2

1 2
O    0.89335966   0.52926981  -0.62715977
C    2.25791907   0.36529988  -0.25479990
C    2.97456908   1.69680941  -0.43321985
C    4.44201851   1.61811936  -0.00832000
O    5.10781813   0.62212980  -0.77761972
C    5.12749767   2.95322871  -0.15935993
C    6.24670744   3.21793866  -0.84826970
H    0.46989983  -0.34254989  -0.54041982
H    2.69513917  -0.41125983  -0.89042968
H    2.29409909   0.03603999   0.78863972
H    2.44869900   2.47201896   0.13826995
H    2.89653873   1.99212921  -1.48780942
H    4.50511837   1.31562948   1.04316962
H    5.08233833   0.91986966  -1.70334935
H    4.65430832   3.77818847   0.37239987
H    6.79690742   2.44620895  -1.37932944
H    6.65384769   4.22344828  -0.87635964

