%chk=mol_5896.chk
# wB97XD/Def2SVP opt pop=full gfinput

C 4 H 8 N 2 O 1

1 2
N    2.131498   0.137062   0.897318
N    4.348486   0.161931  -0.369366
C    5.605910   2.267917  -0.256587
C    4.906825   4.624859   1.121912
C    6.543441   6.454700  -0.340585
O    8.819333   5.114941  -0.952138
C    8.109344   2.562847  -1.568057
H    1.466654  -1.678833   0.973946
H    0.770970   1.104847  -0.078896
H    5.534233   4.445222   3.083844
H    2.905095   5.105567   1.033567
H    5.635126   7.040250  -2.109520
H    7.006065   8.146061   0.753037
H    7.899414   2.364841  -3.612627
H    9.518569   1.252643  -0.823637

