%chk=mol_1812.chk
# wB97XD/Def2SVP opt pop=full gfinput

C 4 H 7 N 3

1 2
C    2.917265   0.167316   0.763430
N    5.315384  -0.420880  -0.527177
C    5.405713  -3.174230  -1.089540
C    5.770789  -4.758482   1.178943
N    6.046803  -6.021745   2.951960
N    5.774361   1.087896  -2.567193
C    7.877116   2.312401  -2.351027
H    2.866129   2.174886   1.270312
H    2.713023  -0.892234   2.528643
H    1.284579  -0.224254  -0.449377
H    7.014191  -3.530840  -2.350404
H    3.709892  -3.761953  -2.126811
H    8.476159   3.602498  -3.869876
H    9.148864   2.143384  -0.704509

