%chk=mol_4189.chk
# wB97XD/Def2SVP opt freq pop=full gfinput

C 5 H 9 N 1 O 1

1 2
C    0.93632966   0.13786995   0.16836995
C    2.40524912  -0.13121995  -0.11958995
O    2.57336903  -1.49794936  -0.55388975
C    2.67791891  -1.49754941  -1.99074924
C    3.17736888  -0.14614995  -2.37848902
N    2.28510904   1.00293958  -2.46579909
C    2.97538877   0.73421973  -1.20336950
H    0.77683967   1.17464960   0.47632983
H    0.57897973  -0.52612978   0.96221966
H    0.31007990  -0.06263998  -0.70876974
H    2.98381901  -0.01145000   0.80214971
H    3.37011862  -2.29146910  -2.28616929
H    1.69189942  -1.70893931  -2.41710925
H    4.11762857  -0.13218996  -2.90864897
H    2.73182917   1.77380931  -2.96535897
H    3.76453876   1.40139949  -0.88986969

