%chk=mol_2397.chk
# wB97XD/Def2SVP opt pop=full gfinput

C 6 H 10 O 1

1 2
C    1.867427   0.042349   0.194396
C    4.398073   0.015477   0.064780
C    5.943208  -2.380450  -0.015534
C    7.783820  -2.288610  -2.244995
O    9.334907  -0.066613  -2.147182
C    7.833142   2.184505  -2.306505
C    5.991075   2.376822  -0.084055
H    0.814000   1.803933   0.228411
H    0.779418  -1.695235   0.278583
H    4.746992  -4.063705  -0.159663
H    7.013435  -2.517021   1.754233
H    9.043057  -3.929175  -2.178854
H    6.781774  -2.343412  -4.059075
H    9.127434   3.798085  -2.280880
H    6.834970   2.213417  -4.122721
H    7.061755   2.544082   1.683576
H    4.828553   4.078747  -0.279075

