%chk=mol_1833.chk
# wB97XD/Def2SVP opt pop=full gfinput

C 5 H 8 N 2

1 2
C    2.080740  -0.394348  -0.582206
N    4.669494   0.006047   0.158510
C    5.858529   2.273360  -0.008258
N    4.956978   4.507620  -0.180979
C    8.576995   2.285435   0.000000
C   10.826071   2.285435   0.000000
C   13.554835   2.285435   0.000000
H    1.536914  -2.351462  -0.195379
H    1.836889  -0.041498  -2.604969
H    0.803190   0.838585   0.477647
H    5.812495  -1.516260  -0.070714
H    3.033407   4.421449  -0.139235
H   14.299482   4.214581  -0.022148
H   14.299444   1.301681  -1.659614
H   14.299463   1.340024   1.681762

