%chk=mol_5030.chk
# wB97XD/Def2SVP opt freq pop=full gfinput

C 4 H 8 N 2 O 1

1 2
C    2.32924914  -0.53634977  -1.50773942
N    2.22249913   0.15630995  -0.23014991
C    3.24011898   1.22640955  -0.16667993
C    2.60941911   2.56539893  -0.63374978
N    3.12955880   3.17004871   0.60622978
C    3.33155870   1.96011925   1.20409954
O    3.45249867   1.67716932   2.37075925
H    1.56035936  -1.31278944  -1.56698942
H    3.30514860  -1.01985967  -1.62202942
H    2.17065930   0.14892995  -2.34688926
H    2.33043909  -0.52152979   0.52738982
H    4.22729826   0.98195964  -0.57513976
H    1.51705945   2.62301898  -0.68642974
H    3.05380893   3.00007892  -1.53275943
H    2.69749880   3.88317847   1.17851961

