%chk=mol_5547.chk
# wB97XD/Def2SVP opt freq pop=full gfinput

C 4 H 6 N 2 O 1

1 2
N    1.02757967   0.04011998   0.25454989
C    2.39133906  -0.00800000   0.08851997
C    3.14748883  -1.10439956  -0.04919998
C    4.53598833  -0.65593976  -0.20334993
O    5.50068760  -1.38006949  -0.34936985
N    4.53158855   0.71261978  -0.15895994
C    3.22478867   1.24777949   0.04320998
H    0.54478979  -0.81607968  -0.01098000
H    0.58491975   0.87454969  -0.12410995
H    2.85754895  -2.13834929  -0.05149998
H    5.38866806   1.24306953  -0.22575991
H    2.96381879   1.89540923  -0.79789972
H    3.19941878   1.80131936   0.98554963

