%chk=mol_3355.chk
# wB97XD/Def2SVP opt pop=full gfinput

C 6 H 12 O 1

1 2
C    7.678222  -1.728873   0.526591
O    6.615837   0.129465   2.144650
C    6.486012   2.581007   1.010682
C    4.557717   4.096737   2.527244
C    9.041829   3.823577   1.127486
C   10.733664   3.898996  -1.169589
C    9.531155   6.288215  -0.220229
H    7.614009  -3.548622   1.506773
H    9.652740  -1.297675   0.097585
H    6.582615  -1.890085  -1.219932
H    5.801705   2.420078  -0.941632
H    5.143060   4.277112   4.504710
H    2.723341   3.137361   2.527660
H    4.307026   5.997462   1.749868
H    9.924861   3.570902   2.961295
H   10.042420   3.124152  -2.934801
H   12.746241   3.654938  -0.880461
H   10.732265   7.662367   0.717737
H    8.032470   7.119657  -1.340798

