%chk=mol_6261.chk
# wB97XD/Def2SVP opt freq pop=full gfinput

C 4 H 8 N 2 O 1

1 2
O    0.95830965   0.20368992  -0.04662998
C    2.32738924  -0.13996994   0.12613995
C    3.22134876   1.08601964  -0.10608996
N    2.77202892   2.03993917  -0.86861962
N    4.45872831   1.06103957   0.52411979
C    5.59182787   1.63720942  -0.21878992
C    5.01387835   2.35639906   0.95101964
H    0.74968976   0.84959966   0.65258980
H    2.59078908  -0.90651965  -0.60837978
H    2.47737908  -0.53963977   1.13320959
H    1.83494925   1.75765932  -1.20051956
H    5.36565781   1.98749924  -1.21692955
H    6.50679779   1.07844961  -0.08770997
H    5.52501822   2.30220914   1.90069926
H    4.38268805   3.21755862   0.77813971

