%chk=mol_0028.chk
# wB97XD/Def2SVP opt freq pop=full gfinput

C 3 H 7 N 1

1 2
C    1.14414954  -0.00670000  -0.09327997
N    2.59760904  -0.07776997   0.02585999
C    3.23463869  -0.74654973  -1.10311961
C    3.30410886   0.75148976  -0.94365960
H    0.75941968   0.75105971   0.59728980
H    0.70253974  -0.96769965   0.19015993
H    0.78457969   0.24430990  -1.09874964
H    2.60717893  -1.15905952  -1.88312924
H    4.11972857  -1.32459950  -0.86745965
H    4.23750830   1.18329954  -0.60265976
H    2.72989893   1.37317955  -1.61958933

