%chk=mol_5684.chk
# wB97XD/Def2SVP opt freq pop=full gfinput

C 4 H 7 N 1 O 2

1 2
N    2.91648889  -1.05983961  -0.56233978
C    2.42305923   0.17505994   0.06756998
C    3.36518860   1.39560950  -0.06674998
O    3.37576866   1.88024926  -1.43292940
C    3.00777888   3.19022870  -1.24620950
C    2.76634908   3.48892856   0.01229000
O    2.93453884   2.42613912   0.86521965
H    2.24135923  -1.80727923  -0.40677986
H    3.78319860  -1.35394955  -0.11460996
H    2.24050903  -0.02593999   1.12962949
H    1.45280945   0.42022982  -0.37986985
H    4.39176846   1.11700952   0.20534992
H    2.95209885   3.80397844  -2.12697911
H    2.45685911   4.41853857   0.45449981

