%chk=mol_1834.chk
# wB97XD/Def2SVP opt pop=full gfinput

C 5 H 10 N 2

1 2
C    0.922375   3.534884  -0.685007
N    3.066383   2.187963   0.334973
C    5.517188   3.037376   0.166315
N    6.143538   5.384453  -0.066008
C    7.646040   1.079525   0.287900
C    7.437320  -0.709403  -1.909171
C    7.115027  -3.210720  -1.693006
H   -0.787071   2.392129  -0.467877
H    1.190811   3.919292  -2.699172
H    0.620737   5.318691   0.315225
H    2.896894   0.278432   0.186818
H    4.557528   6.480116  -0.046997
H    7.506370   0.086228   2.099618
H    9.479566   2.038693   0.224443
H    7.576573   0.131865  -3.781701
H    6.995936  -4.130922   0.136722
H    6.993914  -4.398810  -3.361672

