%chk=mol_1751.chk
# wB97XD/Def2SVP opt pop=full gfinput

C 6 H 11 N 1

1 2
C    1.852687   0.004724   0.286501
N    4.606888  -0.066065   0.268209
C    5.657065   2.462691  -0.197930
C    8.576466   2.528246  -0.080200
C    9.806621   0.830100  -2.072293
C    9.475332   5.156042  -0.413774
C   10.210663   7.287370  -0.684515
H    1.118397  -1.900120   0.617619
H    1.098573   0.671835  -1.521060
H    1.145212   1.216832   1.806332
H    5.183821  -1.269121  -1.121760
H    4.914573   3.776504   1.226999
H    5.020360   3.152725  -2.048898
H    9.179987   1.870186   1.792500
H    9.177474   1.330103  -3.981200
H    9.359700  -1.163013  -1.747751
H   11.869654   1.013158  -2.027884
H   10.867475   9.175395  -0.924322

