%chk=mol_6743.chk
# wB97XD/Def2SVP opt freq pop=full gfinput

C 5 H 10 N 2

1 2
C    0.92890966   0.02913999  -0.00619000
C    2.45504928  -0.04281998  -0.02728999
C    3.00637889   0.14669994  -1.43321943
C    3.00355887  -1.29526949   0.65899974
N    3.19132876  -0.81290972   2.02526927
N    3.43202853   0.52141982   2.05656910
C    3.00876904   0.98222965   0.92466968
H    0.52975982  -0.06167997   1.01077962
H    0.49094981  -0.77196974  -0.61143976
H    0.57548976   0.98732966  -0.40454984
H    4.10186863   0.18457992  -1.43276942
H    2.65509892   1.08812964  -1.87087941
H    2.69549894  -0.67172974  -2.09127927
H    3.97057843  -1.59812939   0.24055992
H    2.31921911  -2.14780903   0.61960977
H    3.88611841  -1.34748948   2.54834890
H    3.02320886   2.05023909   0.66260976

