%chk=mol_2133.chk
# wB97XD/Def2SVP opt pop=full gfinput

C 5 H 10 N 2

1 2
N    2.300250   0.081617   1.159404
N    4.420599   0.116256  -0.258344
C    5.599750   2.264818  -0.359237
C    4.887361   4.695554   0.951326
C    6.378563   6.606917  -0.597191
C    8.798074   5.223486  -1.315854
C    7.967823   2.529304  -1.915937
H    1.641567  -1.734976   1.267723
H    0.879214   1.069320   0.295402
H    5.553281   4.616733   2.907533
H    2.858721   5.077713   0.901551
H    5.320562   7.109660  -2.305239
H    6.750725   8.341723   0.460564
H    9.755938   6.111072  -2.920723
H   10.115043   5.220898   0.286199
H    7.494370   2.303179  -3.912470
H    9.387290   1.137558  -1.364855

