%chk=mol_4770.chk
# wB97XD/Def2SVP opt freq pop=full gfinput

C 4 H 8 N 2 O 1

1 2
C    1.56762946   2.67439890  -1.25029945
C    2.84623885   1.96869922  -0.92816961
N    3.93017840   2.63455892  -0.69839978
N    4.99150801   1.77636933  -0.42983985
C    6.07617760   2.45232916  -0.21732992
C    7.36754751   1.74794936   0.12980995
O    7.36701727   0.38082984  -0.23124991
H    1.21396947   2.33548903  -2.22731924
H    1.71099937   3.75746870  -1.26693952
H    0.81966972   2.41344905  -0.49756980
H    2.81541896   0.86484969  -0.89597970
H    6.09611797   3.55669880  -0.22668990
H    7.53307724   1.83899927   1.20706952
H    8.18882656   2.24938917  -0.38912985
H    6.43915749   0.08439997  -0.15238994

