%chk=mol_6594.chk
# wB97XD/Def2SVP opt pop=full gfinput

C 4 H 6 N 2 S 1

1 2
C    1.832203  -0.240562   0.041479
N    4.580923  -0.156828   0.048528
C    5.669405   2.008552  -0.034317
S    4.281061   5.045512  -0.115292
N    7.063116   6.531366  -0.409844
C    8.979959   4.798260  -0.170264
C    8.433810   2.338083  -0.030141
H    1.225147  -2.218557   0.042235
H    1.038537   0.636970  -1.656515
H    1.038197   0.643376   1.735751
H    7.352868   8.215320   0.478932
H   10.885843   5.551845  -0.116275
H    9.726798   0.777528   0.134171

