%chk=mol_5314.chk
# wB97XD/Def2SVP opt freq pop=full gfinput

C 5 H 11 N 1 O 1

1 2
C    1.57761943  -0.13419995   0.29168990
O    2.98177886   0.06019998   0.38706985
C    3.35290861   1.38365948  -0.01333999
C    4.86428833   1.53229940   0.11484995
N    5.47322798   0.97345960   1.34420955
C    5.69907761   1.45689952  -1.14195955
C    5.49773788   2.77714896  -0.45719984
H    1.34704947  -1.15088952   0.62085974
H    1.24480951  -0.01834999  -0.74423969
H    1.04728961   0.57093978   0.93912965
H    2.86466885   2.11147928   0.64530975
H    3.02465868   1.56170952  -1.04445958
H    5.19762802  -0.01162000   1.39537954
H    5.03932810   1.39667952   2.16367936
H    5.20098782   1.28961957  -2.08947921
H    6.68033743   0.99895966  -1.07863951
H    6.34502745   3.20860863   0.06449997
H    4.86374807   3.50880885  -0.94400966

