%chk=mol_1690.chk
# wB97XD/Def2SVP opt pop=full gfinput

C 5 H 10 N 2

1 2
C    2.139661  -0.005631   0.469824
N    4.619643   0.157225  -0.707381
C    5.846510   2.236680  -0.468463
C    5.004467   4.614447   0.867120
C    6.560789   6.597733  -0.553236
C    8.966430   5.227152  -1.388061
N    8.186180   2.617989  -1.480827
H    1.506168  -1.974121   0.434561
H    0.749428   1.114315  -0.574855
H    2.172996   0.589538   2.452109
H    5.551411   4.499173   2.859156
H    2.980892   4.971057   0.701013
H    5.508457   7.221570  -2.228082
H    6.958898   8.269555   0.594810
H    9.628325   5.900027  -3.226310
H   10.476944   5.460836   0.004743
H    8.755120   1.447398  -2.883287

