%chk=mol_5461.chk
# wB97XD/Def2SVP opt pop=full gfinput

C 4 H 9 N 1 O 2

1 2
C    4.661293   8.210142   0.338620
O    6.293185   6.192028  -0.396540
N    7.140406   6.654481  -2.900692
C    5.860759   4.997230  -4.668058
C    9.730785   6.982349  -3.153802
C   11.117221   7.864984  -0.825262
O   10.865320   6.643086  -5.157327
H    5.729631   9.970025   0.527801
H    3.836919   7.736217   2.173128
H    3.126646   8.455202  -1.027198
H    6.404471   3.041023  -4.273956
H    6.405567   5.470285  -6.604290
H    3.817228   5.207235  -4.452724
H   11.185705   6.345266   0.571718
H   10.205788   9.535577  -0.026040
H   13.053983   8.376325  -1.336849

