%chk=mol_5733.chk
# wB97XD/Def2SVP opt pop=full gfinput

C 4 H 9 N 1 O 2

1 2
N    5.319768  -1.973309   2.072633
C    4.633967  -0.405516  -0.102329
C    5.575807   2.303727   0.244360
C    8.448531   2.565908   0.040138
C    9.912029   2.203629   2.462861
O    9.464221   0.022280   3.690333
O   11.503859   3.708266   3.198985
H    4.758784  -3.792680   1.700187
H    4.186481  -1.453369   3.565989
H    2.576396  -0.414946  -0.322047
H    5.447117  -1.230438  -1.817406
H    4.897244   3.084392   2.039846
H    4.722633   3.444536  -1.262129
H    8.840819   4.512628  -0.567409
H    9.238890   1.323394  -1.414762
H    8.086176  -0.994336   2.926619

