%chk=mol_2834.chk
# wB97XD/Def2SVP opt freq pop=full gfinput

C 6 H 12 O 1

1 2
C    0.94922966  -0.14943995  -0.02765999
C    2.44219899   0.16143993  -0.06312998
C    2.84103894   1.62329936   0.00945000
C    1.97792923   2.64580917   0.14232995
C    4.33841801   1.89310920  -0.03564999
C    4.92581797   1.82048929  -1.44801950
O    4.45729828   2.89549899  -2.25457907
H    0.79139972  -1.23221958  -0.08217997
H    0.42847985   0.30580989  -0.87623966
H    0.48865983   0.20645992   0.89908963
H    2.85081887  -0.26994991  -0.98466963
H    2.91703892  -0.36631986   0.77289975
H    0.90329969   2.50357914   0.19613993
H    2.32592893   3.67358875   0.20468992
H    4.84918833   1.16869962   0.61076975
H    4.54785824   2.88525891   0.38302988
H    4.68550825   0.87708968  -1.94868922
H    6.01578760   1.90313923  -1.39668953
H    3.48457861   2.85192895  -2.24612927

