%chk=mol_2709.chk
# wB97XD/Def2SVP opt freq pop=full gfinput

C 7 H 14

1 2
C    2.49281907  -0.86852968   1.25944960
C    2.49703908  -0.08066998  -0.03290999
C    1.90071929  -0.62212980  -1.11192966
C    3.19319892   1.29842961  -0.02377999
C    3.02574873   2.07889915  -1.34855950
C    2.61396885   2.18405938   1.09840953
C    4.70671844   1.11678958   0.21168992
H    3.51015878  -1.03051960   1.62540936
H    2.03871918  -1.85799932   1.13555956
H    1.91734934  -0.34783986   2.03001928
H    1.42443955  -1.59802938  -1.06567955
H    1.86084926  -0.12902996  -2.07629919
H    3.47964859   1.54623938  -2.19266915
H    3.51187873   3.06074882  -1.29328954
H    1.96871924   2.25496912  -1.58028936
H    2.82393885   1.77572930   2.09331918
H    1.52719939   2.28940916   0.99956959
H    3.04853892   3.19071865   1.07257962
H    4.92117834   0.68942976   1.19727957
H    5.23209763   2.07764912   0.16049993
H    5.14894819   0.45663983  -0.54335982

