%chk=mol_5691.chk
# wB97XD/Def2SVP opt freq pop=full gfinput

C 5 H 7 N 1 O 1

1 2
N    3.59665871  -1.06923962  -2.36448908
C    3.59592867  -0.59497976  -1.31572950
C    3.59500861   0.00000000   0.00000000
C    4.36373854   1.31288958  -0.00195000
C    3.64345860   2.51544905  -0.63258976
O    3.28953862   3.02423882   0.67801970
C    4.23835802   2.12134910   1.29636955
H    4.05939865  -0.69001979   0.71424973
H    2.56375909   0.15356994   0.33991987
H    5.40405798   1.19996953  -0.33126989
H    2.75718880   2.29557920  -1.23406959
H    4.28715849   3.22046876  -1.16842961
H    5.14312840   2.65353894   1.60807943
H    3.80490875   1.59981942   2.15434933

