%chk=mol_5801.chk
# wB97XD/Def2SVP opt freq pop=full gfinput

C 4 H 8 N 2 O 1

1 2
N    1.31171942  -0.68671972  -0.48864982
C    2.35607910   0.34067988  -0.37092987
C    2.20473909   1.10925961   0.94366968
O    1.11075962   1.41032946   1.41937947
N    3.44049859   1.46932948   1.48503947
C    3.61455846   2.75620914   2.09603930
C    3.61959863   1.51546943   2.90873909
H    1.19324958  -0.93412966  -1.46897948
H    0.42649984  -0.27011988  -0.18610993
H    2.26357913   1.06464958  -1.18701947
H    3.33974886  -0.13431995  -0.43025985
H    2.73759890   3.39041877   2.10992908
H    4.55342817   3.22834897   1.84448934
H    4.56186819   1.10237968   3.23886871
H    2.74647903   1.26956952   3.49924874

