%chk=mol_3224.chk
# wB97XD/Def2SVP opt freq pop=full gfinput

C 5 H 12 O 2

1 2
C    0.81008971   0.93786961  -0.09399997
C    2.27072906   0.61348981  -0.33545986
O    3.03914881   1.78918934  -0.08201997
C    4.43794823   1.55451941  -0.25383991
C    5.20846796   2.82594895   0.09764997
C    4.81587839   4.00833845  -0.78299969
O    3.48725867   4.43582821  -0.51575983
H    0.18213993   0.05896998  -0.26215988
H    0.47920981   1.74185932  -0.75890976
H    0.65876973   1.29010952   0.93134964
H    2.41786909   0.29368991  -1.37313950
H    2.58959913  -0.18999994   0.33804986
H    4.63502789   1.26634955  -1.29258943
H    4.75762844   0.74082971   0.40689984
H    6.28211784   2.63370895  -0.00262000
H    5.00043821   3.08302879   1.14398956
H    4.89433813   3.75429845  -1.84405935
H    5.47971821   4.85557795  -0.58725977
H    2.95261884   3.62439871  -0.38130984

