%chk=mol_0226.chk
# wB97XD/Def2SVP opt freq pop=full gfinput

C 5 H 9 N 1

1 2
C    0.80329973   1.35008943  -0.63978976
C   -0.32660988   0.97159964   0.27821988
C   -1.38075948   0.00482000  -0.16796993
C   -0.73913974  -1.37455952   0.03594999
N    0.71727973  -1.17345965  -0.08298997
C    0.96955967   0.21724992   0.32497990
H    0.72328973   1.11587965  -1.69487929
H    1.33673954   2.27038908  -0.43376982
H   -0.59555978   1.60132945   1.11199963
H   -2.29735899   0.10441996   0.42146987
H   -1.62452936   0.16927995  -1.22371960
H   -0.96728963  -1.73598933   1.04609966
H   -1.10714960  -2.11082911  -0.68397969
H    1.20545948  -1.84341931   0.51012981
H    1.62310934   0.36770985   1.17795956

