%chk=mol_6878.chk
# wB97XD/Def2SVP opt freq pop=full gfinput

C 5 H 6 N 2

1 2
C    1.08463967  -0.02269999   0.00432000
C    2.57681894  -0.02581999   0.00195000
N    3.30197883  -1.10156953   0.00140000
C    4.58602810  -0.65305972  -0.00014000
N    5.56566811  -1.46932948  -0.00161000
C    4.61066866   0.80828971   0.00017000
C    3.34230876   1.21885955   0.00146000
H    0.70453972  -1.04741967  -0.00907000
H    0.71748972   0.50581980  -0.87938964
H    0.72092974   0.48136982   0.90360969
H    5.13692808  -2.40279913  -0.00134000
H    5.51416779   1.38944948  -0.00046000
H    2.94785905   2.21748924   0.00219000

