%chk=mol_5179.chk
# wB97XD/Def2SVP opt freq pop=full gfinput

C 4 H 10 N 2 O 1

1 2
C    1.04985964  -0.11285996   0.10357996
N    2.50051904  -0.27648988  -0.07470997
C    2.78780913  -1.71284938  -0.22563991
N    3.02536893   0.53392982  -1.03475964
C    4.24938869   0.88410968  -0.78861970
C    4.99706793   1.76363933  -1.76599944
O    4.12708855   2.52501917  -2.58233905
H    0.81099969   0.94026965   0.28919989
H    0.69329977  -0.67832977   0.97140962
H    0.49488983  -0.43617985  -0.78445971
H    2.41604900  -2.27891922   0.63555974
H    3.86872864  -1.88373923  -0.27261990
H    2.33926892  -2.11887908  -1.13909948
H    4.81309843   0.52834982   0.09259997
H    5.62497807   1.12795961  -2.39719915
H    5.64267826   2.44478917  -1.20475948
H    3.30131888   2.00302935  -2.64194894

