%chk=mol_4116.chk
# wB97XD/Def2SVP opt pop=full gfinput

C 6 H 9 N 1

1 2
C   -3.252370   1.766780   0.723860
C   -2.521046  -0.717945  -0.389265
N   -0.581733  -2.429999   0.535700
C    1.454371  -1.126220  -0.817628
C    3.817681  -0.187688   0.218906
C    1.689963   1.710089  -0.044427
C   -1.061629   1.674165  -1.121609
H   -5.000461   2.618140   0.078178
H   -2.873707   2.084028   2.708998
H   -3.791660  -1.514294  -1.794049
H   -0.366701  -2.250286   2.442263
H    1.613788  -1.668912  -2.808964
H    4.359617  -0.804173   2.096311
H    5.414632   0.024170  -1.048137
H    1.594305   2.578399   1.827309
H   -1.368974   2.450861  -2.996747

