%chk=mol_5879.chk
# wB97XD/Def2SVP opt pop=full gfinput

C 4 H 7 N 1 O 2

1 2
N   -0.395803   2.344734   1.713490
C    1.591301   2.996425   0.205451
O    1.548631   4.952462  -1.044036
C    3.841662   1.189054   0.227788
O    3.250518  -1.090183   1.545513
C    5.099917  -2.885895   1.675242
C    7.443367  -2.832227   0.731286
H   -0.419406   0.645228   2.595010
H   -1.960213   3.438489   1.705176
H    5.408245   2.168272   1.164657
H    4.306951   0.765075  -1.744860
H    4.398980  -4.507129   2.718711
H    8.200296  -1.246085  -0.318608
H    8.691021  -4.439061   1.003067

