%chk=mol_3975.chk
# wB97XD/Def2SVP opt pop=full gfinput

C 5 H 11 N 1 O 1

1 2
C    1.802421   0.077781  -0.007842
C    4.662389   0.011244   0.035376
C    5.997878   1.823378   1.893600
N    7.881311  -0.197665   2.398044
C    5.916846  -2.091946   1.638752
C    7.042178  -4.351264   0.251730
O    8.740929  -5.650773   1.893354
H    1.055318  -1.506320  -1.109213
H    1.128318   1.830370  -0.876360
H    1.003407  -0.037832   1.898381
H    5.438764   0.147191  -1.887251
H    4.894088   2.344149   3.568219
H    6.780337   3.544181   1.056905
H    9.380241  -0.109774   1.182780
H    4.767137  -2.706598   3.256811
H    8.099707  -3.774577  -1.431505
H    5.562522  -5.671144  -0.333631
H    9.494154  -4.366004   2.983140

