%chk=mol_2596.chk
# wB97XD/Def2SVP opt freq pop=full gfinput

C 6 H 4 O 1

1 2
C    0.98207963  -0.08064996  -0.00295000
C    2.17941928   0.00610000   0.00025000
C    3.59023857   0.10879996   0.00395000
C    4.42956829   1.19687963   0.00317000
C    5.74608803   0.67049974   0.00829000
C    5.61231804  -0.69977975   0.01157000
O    4.29811859  -1.04984963   0.00881000
H   -0.07942997  -0.16414994  -0.00557000
H    4.13185835   2.23562932  -0.00045000
H    6.67686749   1.22000957   0.00943000
H    6.31357765  -1.52267933   0.01576000

