%chk=mol_5439.chk
# wB97XD/Def2SVP opt freq pop=full gfinput

C 5 H 11 N 1 O 1

1 2
C    2.11085916  -0.71355975  -1.43964946
O    3.03806901  -0.31575990  -0.43660983
N    3.55249858   0.94181961  -0.78418976
C    4.39433813   1.30867946   0.12547995
C    5.11488771   2.63037896   0.02083999
C    4.75032806   3.49422884   1.22159958
C    6.61568785   2.37697911  -0.04430998
H    1.71555936  -1.69777930  -1.17450953
H    2.60976911  -0.78387970  -2.41121888
H    1.28084946  -0.00216000  -1.49162936
H    4.61612844   0.67628974   1.00429964
H    4.79467821   3.13690877  -0.89758968
H    5.04780817   3.01826906   2.16256928
H    3.66838861   3.66008878   1.26590943
H    5.24137783   4.47092867   1.16282952
H    6.97376728   1.85953939   0.85251963
H    7.16656733   3.31823897  -0.13840994
H    6.86558723   1.74930930  -0.90650964

