%chk=mol_4735.chk
# wB97XD/Def2SVP opt freq pop=full gfinput

C 5 H 9 N 1 O 1

1 2
C    0.98745966  -0.01578999   0.00502000
C    2.51999903   0.00000000   0.00000000
N    2.99291873  -0.67462975   1.21522951
C    3.04877877  -0.75968969  -1.25044954
O    4.47844839  -0.89367968  -1.23527944
C    3.00201893   1.36116946   0.00000000
C    3.39929867   2.48306894   0.00000000
H    0.58389980   0.47625983  -0.88803971
H    0.57986981   0.51135981   0.87661970
H    0.59756976  -1.04013956   0.02292999
H    2.89267898  -0.05186998   2.01397920
H    3.99139857  -0.86012971   1.10378957
H    2.77132893  -0.24545990  -2.17820930
H    2.63322902  -1.77289939  -1.29291952
H    4.84536839   0.00769000  -1.22564948
H    3.75018859   3.48977876   0.00552000

