%chk=mol_6245.chk
# wB97XD/Def2SVP opt pop=full gfinput

C 5 H 7 N 1 O 1

1 2
O    5.406809  -1.719821  -1.318008
C    4.162934   0.293323  -0.031747
C    3.477096  -0.413340   2.575205
N    2.904679  -0.931673   4.635479
C    5.976750   2.459989   0.233684
C    6.392849   4.258120  -1.946947
C    5.052561   5.156420   0.390663
H    6.046141  -1.022606  -2.891583
H    2.477034   0.815644  -1.112765
H    7.636119   1.955243   1.335167
H    5.280216   4.041406  -3.653937
H    8.297712   4.941974  -2.276326
H    6.052396   6.436086   1.643060
H    3.041023   5.528885   0.264543

