%chk=mol_5283.chk
# wB97XD/Def2SVP opt freq pop=full gfinput

C 4 H 5 N 1 O 2

1 2
C    3.27094865  -1.02070963   0.52550983
O    2.40443921   0.07305997   0.24625990
C    2.98263884   1.27026951   0.16504994
C    2.48243904   2.52237892  -0.08235997
C    3.61165881   3.35708880  -0.03218999
N    4.73133850   2.67713904   0.22688991
O    4.33083820   1.35299945   0.35183987
H    2.66550922  -1.93066919   0.56285977
H    3.75765872  -0.89643967   1.49912941
H    4.01734877  -1.14169955  -0.26723990
H    1.45257950   2.78381896  -0.27011988
H    3.67181849   4.42650843  -0.17182994

