%chk=mol_4092.chk
# wB97XD/Def2SVP opt freq pop=full gfinput

C 4 H 7 N 1 O 2

1 2
C    0.93744963  -0.01258000  -0.39882985
C    2.24801922   0.54587984   0.03597999
N    3.45721865  -0.27250990  -0.03983998
C    3.31523871   0.87279969  -0.97613966
C    4.25637817   1.99649918  -0.73003972
O    5.14278841   1.73595929   0.26075989
O    4.21674824   3.03220868  -1.37138951
H    0.24631990   0.80044973  -0.64240980
H    0.49335980  -0.60571975   0.40684983
H    1.03051960  -0.65344977  -1.28211951
H    2.15256906   1.18453956   0.90820968
H    3.26890874  -1.15080953  -0.53469980
H    3.15341878   0.62080979  -2.01737928
H    4.92395782   0.83846968   0.60546976

