%chk=mol_3812.chk
# wB97XD/Def2SVP opt freq pop=full gfinput

C 5 H 7 N 1 O 1

1 2
C   -1.62152934   0.67421973   0.62575978
C   -0.97165960  -0.31296986  -0.32121986
C    0.08203997  -1.24630952   0.06321998
O    1.34599960  -1.13390958  -0.60128975
C    1.10430956  -0.24214992   0.49663982
C    0.74802971   1.15658963   0.16268994
N   -0.61089981   1.04914963  -0.35986987
H   -2.63100910   0.99841958   0.40776983
H   -1.34793949   0.67250973   1.67274940
H   -1.60329938  -0.65272975  -1.13898969
H   -0.11928996  -2.10337925   0.68649977
H    1.67385936  -0.37437984   1.40262949
H    0.79083973   1.80984938   1.04134965
H    1.42098951   1.56041944  -0.60081977

