%chk=mol_5053.chk
# wB97XD/Def2SVP opt freq pop=full gfinput

C 5 H 11 N 1 O 1

1 2
C    1.19001961  -0.22903992  -0.45068985
N    2.64121890  -0.09855996  -0.48260981
C    3.07548881   1.05053961   0.31318986
C    4.56936836   1.10245967   0.28612989
O    5.17445850   1.62758934   1.47948945
C    5.39128780   0.23734991   1.20575953
C    6.79301739  -0.11918996   0.86713964
H    0.89045966  -1.10067952  -1.04007959
H    0.69899976   0.65146971  -0.87663966
H    0.82774967  -0.38296986   0.57113975
H    2.94027901   0.02917999  -1.44834936
H    2.71641898   0.95477968   1.34553957
H    2.67448902   1.98284924  -0.10027996
H    4.97787809   1.41130948  -0.66589975
H    4.89308834  -0.49949983   1.82096934
H    7.31293726   0.69669974   0.35319987
H    6.81068707  -0.99833959   0.21513993
H    7.35229731  -0.35819986   1.77722943

