%chk=mol_5918.chk
# wB97XD/Def2SVP opt freq pop=full gfinput

C 4 H 8 N 2 O 1

1 2
N    0.84698969   1.76055932  -0.04333998
N    2.23652911   1.86209941   0.18111992
C    3.08714890   0.88288969  -0.30415988
O    2.71410894  -0.09777997  -0.93868965
C    4.52832842   1.13074958  -0.01781999
C    5.56459761   0.06522997  -0.29045990
C    5.49801826   1.28278959  -1.16641951
H    0.55338979   0.84082973   0.30733988
H    0.71294975   1.66807938  -1.05749965
H    2.60000896   2.67893887   0.66544980
H    4.71556807   1.74978936   0.85450965
H    5.23634815  -0.87980968  -0.71015972
H    6.39533806  -0.02303999   0.39909986
H    6.28609753   2.02019930  -1.07402956
H    5.12599802   1.15246952  -2.17747927

