%chk=mol_0648.chk
# wB97XD/Def2SVP opt freq pop=full gfinput

C 6 H 6

1 2
C    1.32341957  -0.34272990  -0.76428968
C    2.53919911  -0.15125994  -0.23987991
C    3.23145890   1.11455953  -0.30501989
C    4.44943857   1.30816948   0.21977991
C    5.09879827   2.56871915   0.13567996
C    5.65195799   3.63328862   0.06692997
H    0.83884966  -1.31155944  -0.69266975
H    0.78139973   0.44796985  -1.27353942
H    3.03585887  -0.98059964   0.25969991
H    2.72470903   1.93689930  -0.80724972
H    4.97787809   0.50591981   0.72611976
H    6.14118767   4.57675838   0.00553000

