%chk=mol_1835.chk
# wB97XD/Def2SVP opt freq pop=full gfinput

C 5 H 8 N 2

1 2
C    1.03367960  -0.08272997   0.56850976
N    2.30671906   0.16661993  -0.07082998
C    2.98710895   1.35959947   0.03832998
N    2.41039920   2.50477910   0.20294993
C    4.51259851   1.33688951  -0.07149997
C    5.11471796   0.48382983   0.96711963
C    5.60673809  -0.20998992   1.81635928
H    0.72196972  -1.11388958   0.37636986
H    0.25508991   0.57819980   0.17700994
H    1.11354959   0.05431998   1.65126944
H    2.91214895  -0.65144974  -0.05959998
H    1.39823949   2.37883902   0.21550992
H    4.89900780   2.35888910   0.00787000
H    4.77171850   0.95947963  -1.06705952
H    6.04466772  -0.81531972   2.57565904

