%chk=mol_2704.chk
# wB97XD/Def2SVP opt pop=full gfinput

C 6 H 10 O 1

1 2
C    1.859812   3.285005   2.619671
C    4.662370   2.978227   2.437577
C    5.886856   2.514016   0.264883
C    8.678492   2.213096   0.114196
C   10.362238   4.220609   1.349680
O   11.834013   2.293221   2.630952
C    9.981023   0.389340   1.949649
H    1.405049   5.155702   3.374333
H    1.078334   1.859736   3.897919
H    0.928649   3.085583   0.783877
H    5.692044   3.155332   4.208552
H    4.842348   2.339972  -1.495718
H    9.245522   1.849002  -1.850722
H    9.483043   5.503222   2.713042
H   11.523625   5.315006   0.035130
H   10.869931  -1.253682   1.063821
H    8.912893  -0.225955   3.610171

