%chk=mol_6793.chk
# wB97XD/Def2SVP opt freq pop=full gfinput

C 5 H 8 N 2

1 2
C    0.95729965   0.05609998  -0.00771000
N    2.39484906  -0.02472999  -0.00087000
C    3.26175880   1.02632964   0.00313000
N    4.50990820   0.61581975   0.00917000
C    4.44534826  -0.75898975   0.00912000
C    5.68340778  -1.56791949   0.01503999
C    3.13160896  -1.17545962   0.00281000
H    0.64802974   1.10436952   0.00283000
H    0.57785976  -0.45224983   0.88230968
H    0.58793980  -0.43173984  -0.91327965
H    2.94145894   2.06001925   0.00140000
H    5.45829821  -2.63894892   0.02336999
H    6.28344774  -1.33804953   0.90081966
H    6.28287792  -1.35155952  -0.87450969
H    2.68222904  -2.15813899   0.00070000

