%chk=mol_3194.chk
# wB97XD/Def2SVP opt pop=full gfinput

C 6 H 12 O 1

1 2
C    6.432760  -2.185790  -0.912983
C    4.978389  -0.202220   0.591106
O    4.815155  -0.994242   3.167181
C    6.107595   2.492681   0.366985
C    4.485529   4.411074   1.807712
C    8.806804   2.670863   1.303023
C   10.780623   3.271947  -0.164331
H    6.572694  -1.660465  -2.907306
H    5.476785  -4.016178  -0.781496
H    8.337906  -2.470477  -0.159115
H    3.034673  -0.154466  -0.126706
H    6.528059  -1.286790   3.764863
H    6.052490   3.020916  -1.640074
H    4.464629   4.030370   3.842720
H    2.530098   4.368367   1.130774
H    5.200659   6.334268   1.532889
H    9.133103   2.325062   3.302958
H   10.562984   3.664387  -2.166288
H   12.673203   3.396688   0.621720

