%chk=mol_5542.chk
# wB97XD/Def2SVP opt freq pop=full gfinput

C 4 H 4 N 2 O 1

1 2
N    0.99331963  -0.10018996   0.12549995
C    2.26969934   0.00793000   0.03329999
C    2.98829889   1.28536952  -0.03395999
C    4.31509829   1.22837949  -0.13238995
O    5.04432821   0.04957998  -0.17313993
C    4.27638865  -1.07250953  -0.10024996
N    2.99509883  -1.13943958  -0.00382000
H    0.54865980   0.81814969   0.14515994
H    2.43761921   2.21320915  -0.00332000
H    4.96619797   2.08929920  -0.19087993
H    4.91349840  -1.96911919  -0.13533996

