%chk=mol_3631.chk
# wB97XD/Def2SVP opt freq pop=full gfinput

C 6 H 12 O 1

1 2
O    2.06519938  -0.20967993  -1.45285940
C    2.33682919   0.06925997  -0.08605997
C    3.03568888   1.41626954   0.02615999
C    2.17161918   2.59310889  -0.42235985
C    2.90826893   3.79680848   0.14777994
C    3.52478862   3.31268883   1.45948946
C    3.39455867   1.78957939   1.46212947
H    1.62319946  -1.07521963  -1.48488951
H    2.97597909  -0.72748971   0.30821988
H    1.39033949   0.06264998   0.46474984
H    3.94557858   1.40342951  -0.58949977
H    1.16546953   2.52891922   0.00940000
H    2.07311916   2.65233898  -1.51060951
H    3.70414877   4.10749865  -0.53955978
H    2.24442911   4.65419817   0.29449987
H    4.57407856   3.62030864   1.52441943
H    3.00467896   3.74154854   2.32293916
H    4.31727839   1.30256951   1.79374933
H    2.59740901   1.49263942   2.15460920

