%chk=mol_6267.chk
# wB97XD/Def2SVP opt freq pop=full gfinput

C 4 H 9 N 1 O 2

1 2
O    0.88613963   0.25623989  -0.22181992
C    2.27994919  -0.04098998  -0.37953988
C    3.09533882   1.09807956   0.24304990
O    2.71130896   1.21985948   1.62078941
C    4.58687830   0.95410967   0.18786994
C    5.30189800  -0.37484986   0.14082994
N    5.24991798   0.49351981  -1.03519964
H    0.40137982  -0.46146983  -0.66644979
H    2.49734902  -0.15900993  -1.44462943
H    2.46143889  -0.98624963   0.13945994
H    2.81319880   2.04421926  -0.23549992
H    1.73394942   1.18320954   1.59886944
H    5.07488775   1.76739931   0.71502972
H    4.74072790  -1.29592943   0.07152998
H    6.25996780  -0.46046981   0.64019972
H    6.13736725   0.98429966  -1.16327953

