%chk=mol_5168.chk
# wB97XD/Def2SVP opt freq pop=full gfinput

C 4 H 10 N 2 O 1

1 2
C    0.93910962  -0.17595994   0.03970999
N    2.39152908  -0.09486996   0.11517996
C    2.85345912   1.27324951  -0.14541994
C    4.37852812   1.38894951  -0.06617998
O    4.74488783   2.74231911  -0.35253987
N    6.14358759   2.84464884  -0.30613989
C    6.47379780   4.07105875  -0.52729982
H    0.61988980  -1.20215952   0.24745992
H    0.57279980   0.09561996  -0.95588958
H    0.46657982   0.47255984   0.78472972
H    2.79926896  -0.72767973  -0.57312977
H    2.41209912   1.96798933   0.58048975
H    2.52312922   1.60688937  -1.13760960
H    4.85024834   0.72546971  -0.80078971
H    4.73156834   1.12306952   0.93694961
H    7.53542709   4.36187840  -0.53169984
H    5.73473740   4.86771822  -0.71681976

