%chk=mol_6983.chk
# wB97XD/Def2SVP opt pop=full gfinput

C 6 H 13 N 1

1 2
C    5.042167  -2.303104  -0.890741
C    4.223859   0.083375   0.490214
C    6.289273   2.077754   0.564915
N    8.524423   1.456053   2.098957
C    6.723967   3.639612  -1.787870
C    5.453561   4.819236   0.463191
C    6.763405   6.851731   1.913197
H    3.479137  -3.655335  -0.967408
H    6.629726  -3.221265   0.064534
H    5.625129  -1.879144  -2.829487
H    3.665710  -0.394991   2.428185
H    2.529795   0.831820  -0.442725
H    8.009528   1.016824   3.901680
H    9.431435  -0.089819   1.396602
H    5.575694   3.268943  -3.443308
H    8.643154   4.202240  -2.235565
H    3.445084   5.205232   0.325486
H    8.823773   6.670299   1.860983
H    6.157540   6.817830   3.890795
H    6.276158   8.702699   1.127203

