%chk=mol_1213.chk
# wB97XD/Def2SVP opt freq pop=full gfinput

C 5 H 10 N 2

1 2
C    0.91808963   0.00762000   0.12581995
C    2.39632916   0.25302991  -0.16508994
C    2.80297899  -0.31135988  -1.50344944
C    3.73700857  -1.25637960  -1.67138946
C    2.72101903   1.75278938  -0.13448994
N    3.70440865   2.20678926   0.69152969
N    2.11561918   2.62356901  -0.87952971
H    0.62805974   0.47793981   1.07102966
H    0.71025974  -1.06484962   0.20315993
H    0.27056989   0.41681984  -0.65735978
H    2.97808909  -0.22798993   0.63284975
H    2.30281925   0.08658996  -2.38503909
H    4.27194881  -1.69229937  -0.83349967
H    3.98590827  -1.61836946  -2.66524887
H    4.48403835   1.58075953   0.85160971
H    3.98810840   3.15068889   0.44757983
H    1.40720940   2.16620922  -1.46202946

