%chk=mol_4594.chk
# wB97XD/Def2SVP opt freq pop=full gfinput

C 6 H 11 N 1

1 2
C    0.67549974   1.02139962  -0.43448982
C   -0.52264982   0.21055992  -0.02677999
C    0.84339970  -0.42038983  -0.03545999
C    1.60972941  -0.85584968   1.18246961
C    1.47932947  -0.14522995   2.54902887
C    1.45385945  -1.56867933   3.12548876
N    0.96035963  -2.03336930   1.80983925
H    0.78539973   1.27309954  -1.48303938
H    1.01705968   1.79280937   0.24582991
H   -1.22180951  -0.09370996  -0.79721969
H   -0.98975968   0.42441982   0.92691964
H    1.04315960  -1.12933958  -0.83417970
H    2.66178894  -1.04225969   0.92079967
H    0.55087978   0.41297984   2.70753884
H    2.32635927   0.47628984   2.84951901
H    2.44146895  -1.96499932   3.39126873
H    0.76574975  -1.73203933   3.95882845
H    1.32825947  -2.93244886   1.50670946

