%chk=mol_4276.chk
# wB97XD/Def2SVP opt pop=full gfinput

C 5 H 11 N 1 O 1

1 2
C    5.230649  -2.461387  -0.618262
C    4.218171  -0.001493   0.475096
C    6.169276   2.095517   0.439059
N    8.375626   1.782352   2.143781
C    6.604290   3.486847  -2.012010
C    5.223014   4.786128   0.093844
O    6.645543   6.673171   1.437912
H    3.750955  -3.905761  -0.618659
H    6.820872  -3.178104   0.490252
H    5.878050  -2.197997  -2.564188
H    3.587078  -0.317946   2.424896
H    2.535616   0.556713  -0.604486
H    7.775770   1.287830   3.909843
H    9.475805   0.320176   1.535119
H    5.516394   2.947689  -3.662270
H    8.495793   4.134324  -2.458194
H    3.213895   5.109612  -0.148098
H    8.113294   5.843638   2.201796

