%chk=mol_2109.chk
# wB97XD/Def2SVP opt freq pop=full gfinput

C 7 H 12

1 2
C    0.91037965   0.00984000  -0.30783987
C    2.36081910  -0.23370990   0.00678000
C    2.66100907  -1.57954943   0.60625982
C    3.29780889   0.70205975  -0.24077992
C    4.73924828   0.60645980   0.01377999
C    5.58995819  -0.22306992  -0.91260964
C    5.68968773   1.27342963  -0.94660962
H    0.74046975   1.00050962  -0.74237972
H    0.30745986  -0.06135998   0.60335976
H    0.54789978  -0.73422974  -1.02437961
H    2.08597922  -1.71842933   1.52753937
H    3.71742868  -1.70922935   0.85850966
H    2.38736916  -2.37402916  -0.09572996
H    2.96893907   1.64974940  -0.66685975
H    5.01340818   0.62396979   1.06448960
H    5.11666775  -0.71983969  -1.75195932
H    6.41208744  -0.77929968  -0.47771981
H    6.58234739   1.73213935  -0.53667980
H    5.29215813   1.78440928  -1.81612933

