%chk=mol_4941.chk
# wB97XD/Def2SVP opt freq pop=full gfinput

C 4 H 7 N 1 O 2

1 2
C    1.03014958  -0.46885985  -0.32514986
C    2.43636918  -0.76739973   0.11514996
O    2.77481890  -1.85850930   0.56094980
N    3.29272866   0.29654989   0.00416000
C    4.67644835   0.19525993   0.41294986
C    5.43394804   1.43504953  -0.00955000
O    4.90342808   2.42028904  -0.52097982
H    0.47624984  -0.02902999   0.50792980
H    0.54328978  -1.39633954  -0.63884974
H    1.02697957   0.22222993  -1.17281961
H    2.96546888   1.19906962  -0.32866988
H    5.13062811  -0.68370974  -0.05330998
H    4.72073841   0.09770997   1.50151932
H    6.51786757   1.41643941   0.19353992

