%chk=mol_2364.chk
# wB97XD/Def2SVP opt pop=full gfinput

C 5 H 8 O 2

1 2
C    1.895414  -0.204204   0.379136
C    4.694628   0.149704  -0.176689
C    5.284487   0.222005  -2.991172
C    6.029115   2.178779   1.419430
C    7.451776  -0.111399   2.501978
O    9.097198  -0.492141   4.040631
O    6.181578  -1.814458   1.063557
H    1.542735  -0.370878   2.411064
H    1.170307  -1.918469  -0.525306
H    0.799392   1.403273  -0.323521
H    7.322632   0.350639  -3.336009
H    4.387226   1.856278  -3.889019
H    4.597383  -1.486629  -3.938378
H    4.872772   3.168957   2.813330
H    7.240278   3.507559   0.405403

