%chk=mol_5176.chk
# wB97XD/Def2SVP opt freq pop=full gfinput

C 4 H 8 N 2 O 1

1 2
C    0.79908973   0.20204993   0.12998995
N    2.23978925   0.17736994  -0.11336996
C    2.81209898   1.30601954   0.06815998
N    4.15334845   1.37446940  -0.14078994
C    4.89613819   2.52017927   0.01935999
C    6.36309767   2.34465909  -0.27021992
O    4.43262863   3.60108852   0.37120986
H    0.30252987  -0.44818985  -0.59643978
H    0.35778987   1.20042956   0.03092999
H    0.58353978  -0.18169993   1.13193965
H    2.32215929   2.24324918   0.38439986
H    4.58357811   0.50758982  -0.42817986
H    6.59248734   1.33432949  -0.61957979
H    6.93196726   2.53566909   0.64364976
H    6.66054773   3.05490899  -1.04642963

