%chk=mol_4756.chk
# wB97XD/Def2SVP opt freq pop=full gfinput

C 4 H 11 N 1 O 2

1 2
C    1.12096953  -0.88671970   0.23436992
C    2.48185921  -0.22903992  -0.00737000
N    3.18201876  -0.95855963  -1.07976961
C    2.37671900   1.26496959  -0.39793983
O    1.59256947   1.40709937  -1.59579945
C    1.75820923   2.13718915   0.70002973
O    1.78409934   3.50545883   0.27836990
H    0.59983981  -0.41665986   1.07403958
H    1.23929954  -1.94695926   0.48614982
H    0.47381982  -0.82304966  -0.64699978
H    3.08191872  -0.31941986   0.90541965
H    2.73996902  -0.68921977  -1.96485925
H    3.02411866  -1.96015930  -0.98389965
H    3.37406874   1.65462935  -0.63773978
H    1.36548948   2.35643911  -1.64776945
H    2.29948926   2.05007911   1.64700937
H    0.70618975   1.88605940   0.86270964
H    2.71426916   3.79423857   0.28827989

