%chk=mol_4609.chk
# wB97XD/Def2SVP opt freq pop=full gfinput

C 4 H 9 N 1 O 2

1 2
C    0.99721962   0.01561999   0.04143998
C    2.51748896   0.01260000  -0.07838997
C    2.96000886  -0.69966972  -1.35466957
O    4.37836838  -0.82763964  -1.39033949
C    3.00630903   1.44362938  -0.00415000
N    3.69496870   1.98922932  -0.95621967
O    4.00604868   3.30321884  -0.58920979
H    0.67701972   0.51353985   0.96343964
H    0.60339975  -1.00607967   0.05644998
H    0.53430980   0.54899979  -0.79666972
H    2.94610882  -0.49750981   0.79314971
H    2.63516903  -0.17263994  -2.25879908
H    2.54382920  -1.71164942  -1.38993955
H    4.72518778   0.08434997  -1.46393943
H    2.76015902   2.00297928   0.91745967
H    4.50585794   3.62947869  -1.36142945

