%chk=mol_3505.chk
# wB97XD/Def2SVP opt freq pop=full gfinput

C 6 H 8 O 1

1 2
O    1.44003952   0.11331996   1.23039949
C    2.62634897   0.07225997   0.42018983
C    2.55776906   0.80209970  -0.89622968
C    3.80933857   1.21119952  -1.64563942
C    4.47090816  -0.08712997  -2.03425908
C    3.74300861  -1.12152958  -1.57940936
C    2.52724910  -0.71618974  -0.85803968
H    0.64851975   0.34223989   0.71463972
H    3.57434869   0.05919998   0.94979966
H    1.66861928   1.34600949  -1.17604947
H    4.46641827   1.81200933  -1.00976956
H    3.55088878   1.78547931  -2.54073906
H    5.39600801  -0.16120993  -2.58610892
H    4.00938845  -2.16164923  -1.72040927
H    1.60704935  -1.22569942  -1.10847962

