%chk=mol_2884.chk
# wB97XD/Def2SVP opt pop=full gfinput

C 5 H 8 O 2

1 2
C    1.357938  -0.903308   0.363375
C    4.016273  -1.388363  -0.525401
C    4.593773  -3.389526  -1.979016
C    5.972914   0.546849   0.245116
C    6.494762   0.546962   3.069558
O    7.013738  -1.764626   4.038061
O    6.544670   2.459611   4.366533
H    0.704943   0.942199  -0.306022
H    1.267137  -0.924964   2.429338
H    0.034185  -2.330014  -0.338299
H    3.159168  -4.744347  -2.554399
H    6.495914  -3.717280  -2.676684
H    5.315762   2.433911  -0.299314
H    7.780135   0.235951  -0.717699
H    6.879982  -3.110565   2.779390

