%chk=mol_7149.chk
# wB97XD/Def2SVP opt freq pop=full gfinput

C 6 H 7 N 1

1 2
C    0.99999964   0.00000000   0.00000000
C    2.44399905   0.00000000   0.00000000
C    3.63415861   0.00000000   0.00000000
C    5.00215769   0.00000000   0.00000000
C    6.19231749   0.00000000   0.00000000
C    7.63631725   0.00000000   0.00000000
N    8.14150715   1.36484945   0.01781999
H    0.60592973   1.02084970   0.01167999
H    0.60591978  -0.52053982   0.87823963
H    0.60591978  -0.50030982  -0.88992965
H    8.01876736  -0.51609981  -0.88697964
H    8.01845741  -0.53307980   0.87654966
H    7.79820728   1.85529923  -0.80643970
H    9.15571690   1.34561956  -0.06061998

