%chk=mol_2377.chk
# wB97XD/Def2SVP opt pop=full gfinput

C 6 H 8 O 1

1 2
C    1.940409   0.022507   0.218093
C    4.464365   0.050493   0.092370
C    6.086808   2.347078   0.044635
C    8.308125   1.370316  -1.471095
O    8.591111  -1.250923  -0.826585
C    6.174284  -2.053566  -0.191713
C    5.685789  -4.501951   0.174403
H    0.869066  -1.723562   0.164142
H    0.872827   1.766856   0.369895
H    6.676931   2.827408   1.972137
H    5.211128   4.001174  -0.830327
H    7.975967   1.517885  -3.513152
H   10.056065   2.379373  -1.020187
H    3.836295  -5.177453   0.729453
H    7.172323  -5.892676  -0.064912

