%chk=mol_0112.chk
# wB97XD/Def2SVP opt pop=full gfinput

C 3 H 7 N 1 O 1

1 2
O    1.727890   0.020900  -0.021354
C    4.453329   0.037832  -0.015685
C    5.759583   1.937064   1.773886
N    7.650405  -0.030198   2.405621
C    5.803802  -1.975293   1.609820
H    1.268384  -1.509287  -0.928517
H    5.183141   0.131846  -1.956263
H    4.608626   2.529209   3.391284
H    6.542761   3.620583   0.865891
H    9.219690   0.041479   1.288056
H    6.621619  -3.559299   0.564064
H    4.667284  -2.726213   3.169902

