%chk=mol_3730.chk
# wB97XD/Def2SVP opt pop=full gfinput

C 6 H 6 O 1

1 2
O    1.889802  -0.006841  -0.005499
C    4.573137   0.000000   0.000000
C    5.484023   2.572238   0.000000
C    6.234774   4.692322   0.000000
C    7.145659   7.264561   0.000000
C    5.140320   9.178381  -0.156696
C    3.522619  10.767131  -0.283459
H    1.368162  -1.765269  -0.010790
H    5.230270  -1.018997  -1.675129
H    5.223127  -1.016692   1.679343
H    8.450326   7.534225  -1.587408
H    8.257536   7.602520   1.715871
H    2.086976  12.177924  -0.395331

