%chk=mol_5814.chk
# wB97XD/Def2SVP opt freq pop=full gfinput

C 4 H 8 N 2 O 1

1 2
N    2.41574907  -0.77073973  -0.10729996
C    2.23820901   0.39813983  -0.60985976
N    3.12982893   1.42107940  -0.57531977
C    4.51776838   1.19772959  -0.22043991
C    5.21834803   2.51685905  -0.14381994
C    6.54344749   2.74994898  -0.82185972
O    5.31386757   3.21711898  -1.39418948
H    1.57915938  -1.34142947  -0.27012989
H    1.29812956   0.66368973  -1.12402952
H    3.00566888   2.15631914  -1.26550949
H    4.98864794   0.54726982  -0.96736962
H    4.59029818   0.69943976   0.75360972
H    4.96144819   3.08900881   0.73683971
H    7.03926754   1.92127919  -1.31063950
H    7.21061707   3.49138856  -0.40204984

