%chk=mol_1441.chk
# wB97XD/Def2SVP opt freq pop=full gfinput

C 5 H 12 N 2

1 2
C    2.15034914  -0.22044991   0.46277982
C    2.82053900  -0.50784981  -0.88646966
C    2.01275921  -1.55828941  -1.69272935
N    1.96077931  -2.87286878  -1.04383957
N    2.88589907   0.75652975  -1.64933932
C    4.08619833   1.54566944  -1.37182939
C    3.93569851   0.78562975  -2.66389894
H    2.70643902   0.53516984   1.02829957
H    2.10871935  -1.12234950   1.08207965
H    1.12492955   0.14378995   0.33079988
H    3.82220840  -0.91637963  -0.68979973
H    2.46045923  -1.69062936  -2.68490911
H    0.98614961  -1.20466959  -1.84676933
H    2.90339899  -3.25120878  -0.96695966
H    1.44248950  -3.51534867  -1.64172935
H    4.79460859   1.18156958  -0.63905978
H    3.95635867   2.61975884  -1.39492953
H    3.70509863   1.34991956  -3.55992866
H    4.54003859  -0.09925997  -2.81790876

