%chk=mol_4193.chk
# wB97XD/Def2SVP opt freq pop=full gfinput

C 5 H 11 N 1 O 1

1 2
C    0.96110964  -0.01428000   0.03405999
C    2.47957897  -0.03161999  -0.01998999
O    2.89495897  -0.04216998  -1.41281950
C    3.17742896   1.03952956   0.87114966
C    4.21438837  -0.04052998   1.25575960
C    3.14579868  -1.09983957   0.91322964
N    3.76032853  -2.15527916   0.10727996
H    0.59288979   0.00119000   1.06552958
H    0.54491979  -0.90136963  -0.45507985
H    0.56411976   0.87014967  -0.47516984
H    3.82845855   0.23282991  -1.40087950
H    2.57492900   1.39401948   1.71560931
H    3.58737874   1.90654933   0.34513986
H    5.10421848  -0.02881999   0.61399972
H    4.53965855  -0.02020999   2.29992914
H    2.55224895  -1.44246948   1.76660943
H    3.91681862  -1.86629927  -0.86180967
H    3.15149879  -2.96874905   0.00911000

