%chk=mol_1768.chk
# wB97XD/Def2SVP opt pop=full gfinput

C 5 H 8 N 2

1 2
C    2.053698   0.219416   0.474094
N    4.729210   0.375942  -0.135418
C    6.066739  -2.036256  -0.326375
C    6.868701  -2.926959   2.180007
C    7.542842  -3.629729   4.233724
C    6.085995   2.560900   0.180393
N    5.285432   4.794141   0.696100
H    1.006714   1.777287  -0.397220
H    1.771051   0.291358   2.522104
H    1.209330  -1.531415  -0.237595
H    7.715960  -1.830559  -1.564107
H    4.859601  -3.460145  -1.226602
H    8.149576  -4.224388   6.056912
H    8.141261   2.293542  -0.068692
H    3.367360   4.790626   0.871561

