%chk=mol_6796.chk
# wB97XD/Def2SVP opt pop=full gfinput

C 5 H 10 N 2

1 2
C    1.992508   0.119809   0.050286
C    4.863909   0.000548  -0.087173
C    5.810171  -2.290348  -1.613259
N    6.375936  -1.340345  -4.211500
C    6.366109   1.116979  -3.963984
C    6.836595   2.817771  -6.173225
N    5.830126   2.056891  -1.611936
H    1.380426   1.848530   1.011230
H    1.241720  -1.499025   1.097685
H    1.131133   0.120602  -1.833960
H    5.673033   0.023130   1.815554
H    4.420674  -3.821026  -1.692703
H    7.563081  -3.039284  -0.801679
H    6.791846   4.799205  -5.592663
H    5.381090   2.495081  -7.603956
H    8.686239   2.388104  -6.987187
H    4.996625   3.773991  -1.483681

