%chk=mol_4909.chk
# wB97XD/Def2SVP opt pop=full gfinput

C 4 H 10 N 2 O 1

1 2
C    4.800226  -2.271073  -0.397296
C    7.368118  -1.026802  -0.143619
O    6.994236   1.657819   0.006652
C    8.990221   3.240446   0.157074
N   11.310332   2.534803   0.211404
N    8.192719   5.668668   0.220682
C    9.858059   7.752563  -0.324145
H    4.986307  -4.324185  -0.537325
H    3.815263  -1.572498  -2.077338
H    3.606977  -1.817425   1.231383
H    8.525046  -1.475385  -1.801476
H    8.303551  -1.691626   1.578450
H   11.466707   0.621928   0.159871
H    6.363709   5.892714  -0.284857
H   11.506089   7.739449   0.926400
H    8.857845   9.538544  -0.035621
H   10.499999   7.681586  -2.286890

