%chk=mol_6822.chk
# wB97XD/Def2SVP opt freq pop=full gfinput

C 5 H 10 N 2

1 2
C    0.96345961   0.03109999  -0.05892998
C    2.48264909  -0.03152999  -0.01843999
C    3.01984882  -1.27209949   0.68457973
N    3.19707870  -0.77920973   2.04675937
N    3.43743873   0.55500978   2.06920910
C    3.02844882   1.00692964   0.92333966
C    3.08647895   2.45273900   0.55895978
H    0.56010979  -0.79041976  -0.65938979
H    0.62685972   0.97357959  -0.50352979
H    0.52417982  -0.03092999   0.94271964
H    2.91396880   0.08685996  -1.01702964
H    3.99112868  -1.55740941   0.26426992
H    2.34593916  -2.13178921   0.63774979
H    3.88837862  -1.30891943   2.57970905
H    2.71607900   2.60746908  -0.45723984
H    4.12122822   2.79993892   0.61922973
H    2.47301888   3.02757907   1.25733960

