%chk=mol_1971.chk
# wB97XD/Def2SVP opt freq pop=full gfinput

C 6 H 5 N 1

1 2
N    0.99999964   0.00000000   0.00000000
C    2.15100908   0.00000000   0.00000000
C    3.55700850   0.00000000   0.00000000
C    4.34706879  -1.08796966   0.00495000
C    5.78723764  -0.66614974   0.00637000
C    5.67355776   0.83117968   0.00136000
C    4.38034868   1.18831956  -0.00228000
H    4.01304817  -2.11539912   0.00855000
H    6.30587769  -1.02692962  -0.88655967
H    6.30218792  -1.02094960   0.90389967
H    6.51500750   1.50831950   0.00122000
H    3.99713850   2.19811916  -0.00593000

