%chk=mol_2118.chk
# wB97XD/Def2SVP opt pop=full gfinput

C 5 H 6 N 2

1 2
N    2.225833  -0.420918  -0.958696
C    4.719062  -0.251107  -0.343363
N    5.916184  -2.267804   0.349958
C    6.041927   2.222053  -0.470391
C    8.442238   2.464354   0.298955
C    9.713022   4.826247   0.177842
C   10.796799   6.816564   0.079255
H    1.212562   1.203151  -0.892272
H    1.271181  -1.914141  -0.240090
H    4.734766  -3.789222   0.252789
H    4.990483   3.810538  -1.217532
H    9.478451   0.851529   1.034436
H   11.765926   8.578053  -0.007597

