%chk=mol_2226.chk
# wB97XD/Def2SVP opt freq pop=full gfinput

C 5 H 6 O 2

1 2
C    0.38466987   1.43401945   0.51457983
O    1.33236945   0.33341986   0.32684988
C    0.64249974  -0.50884980  -0.61954975
O   -0.16647993   0.39638987  -1.39853942
C   -0.84937972   0.95360965  -0.25290990
C   -1.38010943  -0.30786988   0.36770985
C   -0.42696986  -1.22520959   0.14570995
H    0.83096969   2.32263923   0.05761998
H    0.21585992   1.60012937   1.58212936
H    1.30435944  -1.12436950  -1.23157954
H   -1.59225941   1.70177937  -0.53166980
H   -2.28908920  -0.42197984   0.93364966
H   -0.39316985  -2.24456906   0.48958984

