%chk=mol_5748.chk
# wB97XD/Def2SVP opt freq pop=full gfinput

C 5 H 11 N 1 O 1

1 2
N    0.80568969   0.11095996   0.67661971
C    2.25781918  -0.03165999   0.51191980
C    2.99306893   1.32884943   0.47222981
C    2.79055882   2.13030910   1.77232933
O    1.42817938   2.51062894   1.94615924
C    4.46946859   1.10521960   0.22561991
C    5.13448811   1.57774937  -0.83700967
H    0.38616985  -0.82098967   0.68907976
H    0.42401984   0.56428981  -0.15763994
H    2.44932914  -0.58741981  -0.41404983
H    2.64075899  -0.64105976   1.33920944
H    2.56383896   1.91191924  -0.35482985
H    3.38417888   3.05074883   1.75600934
H    3.09745884   1.55049944   2.64999914
H    0.90223962   1.69990945   1.76531935
H    5.01464844   0.52653980   0.96963966
H    4.64255810   2.16668940  -1.60534942
H    6.19733763   1.38841951  -0.95650965

