%chk=mol_6729.chk
# wB97XD/Def2SVP opt pop=full gfinput

C 5 H 8 N 2

1 2
C    1.924195   0.033391  -0.159077
C    4.743590   0.044068  -0.087135
C    6.335685  -1.370562  -2.019021
C    5.137976  -2.855168  -3.956803
N    4.187747  -4.108888  -5.484628
N    6.108615   1.400211  -2.055739
C    8.378876   2.682561  -1.157911
H    1.182024   1.512310   1.083078
H    1.202282  -1.784204   0.514931
H    1.171139   0.368931  -2.057383
H    5.442714   0.113573   1.838458
H    8.114975  -2.144027  -1.353516
H    7.932485   4.660915  -0.749390
H    9.826746   2.661018  -2.636451
H    9.206236   1.857525   0.553917

