%chk=mol_7018.chk
# wB97XD/Def2SVP opt pop=full gfinput

C 6 H 9 N 1

1 2
C    1.889726   0.000000   0.000000
C    4.618491   0.000000   0.000000
C    6.867567   0.000000   0.000000
C    9.591060   0.091141  -0.035300
C   10.852112   2.068834   1.698108
C   12.705347  -0.079368   2.335324
N   10.680071  -1.878633   1.637410
H    1.145136   1.929165   0.022223
H    1.145193  -0.983735   1.659671
H    1.145023  -0.945392  -1.681724
H   10.393759   0.062304  -1.949517
H    9.714307   2.699757   3.312085
H   11.671383   3.717488   0.760048
H   14.363657  -0.164860   1.095814
H   13.320622  -0.180318   4.302585
H   11.266547  -3.459503   0.713485

