%chk=mol_5007.chk
# wB97XD/Def2SVP opt pop=full gfinput

C 4 H 5 N 1 O 2

1 2
C    1.922702   0.112439  -0.016195
N    4.508886   0.003874   0.837829
O    5.965223   2.108065   0.003231
C    8.326436   1.085780  -0.312920
C    8.528013  -1.392728  -0.005726
C    5.932965  -2.168272   0.511020
O    5.231802  -4.363415   0.539233
H    1.087159   1.906696   0.571283
H    0.864947  -1.463480   0.799808
H    1.876971  -0.045769  -2.076941
H    9.781487   2.424254  -0.790907
H   10.125380  -2.624716  -0.192072

