%chk=mol_0055.chk
# wB97XD/Def2SVP opt pop=full gfinput

C 4 H 4

1 2
C    1.843825  -0.024037  -0.000000
C    4.370483   0.006538  -0.000000
C    5.739212   2.313497   0.000000
C    6.889923   4.268759   0.000000
H    0.818799  -1.799718  -0.000000
H    0.745308   1.707972  -0.000000
H    5.429334  -1.751171  -0.000000
H    7.897392   6.009386   0.000000

