%chk=mol_4194.chk
# wB97XD/Def2SVP opt pop=full gfinput

C 6 H 11 N 1

1 2
C   -2.365975  -1.459889  -0.982733
C   -2.319979   1.442163  -1.012383
C    0.027873   2.059631   0.582470
C   -0.005764  -0.021789   2.566229
C   -0.001342  -2.106686   0.581960
C    2.345793  -1.388193  -0.950041
N    2.286228   1.409792  -0.937909
H   -2.303973  -2.260509  -2.888711
H   -4.082545  -2.140361  -0.045146
H   -4.034584   2.192517  -0.123966
H   -2.206728   2.203005  -2.933894
H    0.065933   3.993275   1.302437
H   -1.711241  -0.012453   3.738351
H    1.671236  -0.037341   3.780208
H    0.023055  -4.036625   1.309656
H    4.070092  -2.055096  -0.017026
H    2.304634  -2.127227  -2.880793
H    3.858386   2.048066  -0.021883

