%chk=mol_3714.chk
# wB97XD/Def2SVP opt freq pop=full gfinput

C 6 H 4 O 1

1 2
O    1.21230948  -0.29890987   0.72361976
C    2.16943932  -0.03625999  -0.00021000
C    2.94445872   1.25120950   0.08254997
C    4.38834858   1.00071955   0.03459999
C    5.57254791   0.80253971  -0.00197000
C    7.08216763   0.55093980  -0.04576998
C    8.26556683   0.35448986  -0.07737996
H    2.45257902  -0.71772969  -0.82133973
H    2.67445898   1.76821935   1.00889957
H    2.63926888   1.87728930  -0.76202971
H    9.31595612   0.18071993  -0.10290996

