%chk=mol_5262.chk
# wB97XD/Def2SVP opt freq pop=full gfinput

C 4 H 8 N 2 O 1

1 2
C    2.35930920  -1.22518957   0.83253968
N    2.11389923   0.04499998   0.16972993
O    0.82919967   0.53930980   0.44975984
C    3.07879901   1.04114962   0.07237998
N    2.72796893   2.29626918   0.13782994
C    4.52432823   0.71681976  -0.14713994
C    5.47078800   1.66415942  -0.15817994
H    3.15189886  -1.78501940   0.32763988
H    1.45876944  -1.84834933   0.80846965
H    2.64251900  -1.06777966   1.87802935
H    0.45127982   0.65269977  -0.44436982
H    1.71955931   2.28362918   0.33078989
H    4.78724861  -0.31913987  -0.30979991
H    5.22390795   2.71231914  -0.00755000
H    6.51210785   1.41264939  -0.32460988

