%chk=mol_5534.chk
# wB97XD/Def2SVP opt pop=full gfinput

C 5 H 11 N 1 O 1

1 2
N    1.880070   0.059961   0.293191
C    4.641942   0.025814   0.049945
C    5.531361  -2.505550  -1.034531
C    4.939253  -2.726138  -3.844081
O    6.008139  -0.651899  -5.202983
C    4.944223   1.700980  -4.414721
C    5.536350   2.198243  -1.640906
H    1.324377   1.716816   1.107776
H    1.321807  -1.335677   1.500575
H    5.441542   0.269343   1.946097
H    4.705872  -4.097512   0.001795
H    7.587232  -2.621560  -0.784161
H    5.775116  -4.462021  -4.597968
H    2.900692  -2.816164  -4.201258
H    5.783904   3.187061  -5.582950
H    2.906040   1.702246  -4.783369
H    7.592693   2.369622  -1.426838
H    4.714470   4.002761  -1.041315

