%chk=mol_4102.chk
# wB97XD/Def2SVP opt freq pop=full gfinput

C 5 H 11 N 1 O 1

1 2
C    0.93693966  -0.05864998   0.07103997
C    2.44631910  -0.01058000   0.03562999
N    2.97793889  -0.01803999  -1.34601951
C    3.17573881   1.07713962   0.85574967
C    4.22650862   0.02336999   1.26625955
C    3.22737885  -1.08704960   0.86086965
O    3.77147865  -2.18633914   0.10211996
H    0.56542975  -0.07446998   1.10164964
H    0.55550981  -0.95572966  -0.42996985
H    0.49963981   0.81664968  -0.42223984
H    3.96124864   0.25101992  -1.42095947
H    2.48427892   0.62349975  -1.96916938
H    2.59457898   1.44661939   1.70976937
H    3.56240869   1.94303930   0.31067988
H    5.14115810   0.04639998   0.66323972
H    4.50641823   0.03786999   2.32372928
H    2.66458917  -1.46507943   1.72351944
H    3.62268853  -1.90110922  -0.82224965

