%chk=mol_4054.chk
# wB97XD/Def2SVP opt freq pop=full gfinput

C 5 H 11 N 1 O 1

1 2
C    0.92961967  -0.10978996   0.17211993
C    2.43701911   0.01826999  -0.03078999
C    2.85129881  -0.02303999  -1.51055944
O    2.37516928   1.13316965  -2.19268918
C    3.11163878   1.11754954   0.83139974
C    4.13646841   0.03880999   1.20521951
N    3.15837884  -0.99081963   0.80090970
H    0.66514975  -0.16699994   1.23459959
H    0.54066980  -1.00994968  -0.31548986
H    0.40372986   0.75453973  -0.24566990
H    2.45558929  -0.91265965  -2.01195931
H    3.93984866  -0.03735999  -1.62362945
H    1.40991950   1.04918957  -2.27638912
H    2.51469898   1.46826947   1.68229938
H    3.51115870   1.98564923   0.30044988
H    5.04455805   0.05028998   0.59222978
H    4.42313862   0.00635000   2.25973916
H    3.55888867  -1.77924931   0.29519987

