%chk=mol_0389.chk
# wB97XD/Def2SVP opt pop=full gfinput

C 5 H 11 N 1

1 2
C    2.498331   0.542729   0.259157
C    5.295579  -0.000756  -0.235573
C    5.575958  -1.587464  -2.637453
N    6.642614   2.408361  -0.575989
C    7.479309   3.560887   1.789514
C    9.329823   2.279766   0.046827
H    2.244220   1.638090   1.997138
H    1.441162  -1.223900   0.474888
H    1.641605   1.605549  -1.298280
H    6.035029  -1.103524   1.360924
H    4.826266  -0.598741  -4.295669
H    4.550385  -3.376034  -2.451542
H    7.561323  -2.042265  -3.007253
H    7.002966   2.645806   3.556616
H    7.457559   5.607063   1.833261
H   10.558334   3.460637  -1.086215
H   10.126891   0.483430   0.615295

