%chk=mol_7096.chk
# wB97XD/Def2SVP opt freq pop=full gfinput

C 6 H 9 N 1

1 2
C    0.77600974   0.09409997   0.07360997
C    2.25887895   0.04899998   0.26691988
C    3.09840894   0.99861962  -0.18020992
C    4.60760832   1.04569960  -0.03428999
C    5.22901773  -0.09972996   0.76774973
C    5.22791815   1.10802960  -1.37625945
N    5.72502804   1.16817951  -2.42329907
H    0.44757983  -0.78487974  -0.48938984
H    0.45498982   0.98773962  -0.47073984
H    0.27400988   0.08789997   1.04590964
H    2.63204908  -0.82231969   0.79949969
H    2.67012906   1.85246933  -0.70842975
H    4.84450817   1.97923923   0.49266982
H    5.05925798  -1.07128966   0.28878987
H    4.81901836  -0.13990994   1.78284931
H    6.31382799   0.03283999   0.85606968

