%chk=mol_6742.chk
# wB97XD/Def2SVP opt pop=full gfinput

C 7 H 10

1 2
C    0.794120   2.712664   1.450497
C    2.609107   0.893179   0.030632
C    0.783783  -0.691319  -1.600598
C   -1.197028   1.296258  -2.310757
C   -1.826118   1.921171   0.444161
C   -2.363688  -0.719211   1.392785
C   -0.796387  -2.289214   0.163442
H    1.220933   4.675107   0.945695
H    0.958261   2.512693   3.504081
H    3.718641  -0.261141   1.342197
H    3.914624   1.977523  -1.155624
H    1.626638  -1.708615  -3.181713
H   -0.408597   2.901183  -3.355473
H   -2.802785   0.520657  -3.369193
H   -3.353357   3.276332   0.720118
H   -3.687026  -1.216455   2.862519
H   -0.608171  -4.299807   0.447846

