%chk=mol_5921.chk
# wB97XD/Def2SVP opt freq pop=full gfinput

C 4 H 8 N 2 O 1

1 2
N    0.96680963   1.97076929  -1.37206948
N    2.34146905   1.65763938  -1.30246949
C    2.98109889   1.66730928  -0.06787997
O    2.39639902   1.88411927   0.99241960
C    4.47886848   1.41572952  -0.15176994
C    5.20783806   2.72575903  -0.20728992
C    6.00314808   3.10749888  -1.21528959
H    0.80530965   2.75696874  -0.72926968
H    0.45902982   1.20196950  -0.92111963
H    2.89135885   1.67974937  -2.15951896
H    4.70224810   0.78530973  -1.02020955
H    4.78308821   0.85408968   0.73852968
H    5.06809807   3.39562893   0.64042974
H    6.18323755   2.47652912  -2.08010936
H    6.50256729   4.07196856  -1.18954945

