%chk=mol_5999.chk
# wB97XD/Def2SVP opt pop=full gfinput

C 4 H 5 N 1 O 2

1 2
O    2.184221  -0.142164   0.855781
C    4.388832   0.022809   0.231170
C    5.906452   2.404582   0.009902
C    8.219912   1.484909  -1.440841
N    8.394711  -1.193683  -1.034720
C    6.112659  -2.219786  -0.341417
O    5.555077  -4.433090  -0.222855
H    6.417491   3.042667   1.908586
H    4.887267   3.880099  -1.009586
H    7.990499   1.797356  -3.474432
H    9.962769   2.402560  -0.817458
H    9.747056  -2.334398  -1.769842

