%chk=mol_2620.chk
# wB97XD/Def2SVP opt freq pop=full gfinput

C 6 H 8 O 1

1 2
C    0.87608963   0.33105987   0.69537973
C    2.00774932   0.19829993  -0.00662000
C    3.09013891   1.21699965   0.00353000
C    2.69323897   2.68463898  -0.32896987
C    3.62611866   3.09820867   0.82952970
O    4.15892839   4.13706827   1.15492952
C    3.64140868   1.65988946   1.38996959
H    0.11267996  -0.44167981   0.65588975
H    0.66754973   1.19214952   1.32250953
H    2.15980935  -0.68876970  -0.61800981
H    3.90897870   0.87880969  -0.64967978
H    1.65268934   2.97241879  -0.15368994
H    3.01277900   3.03809881  -1.31228948
H    4.63735819   1.28213954   1.63323951
H    2.97973895   1.53796935   2.25226927

