%chk=mol_6214.chk
# wB97XD/Def2SVP opt freq pop=full gfinput

C 5 H 8 N 2

1 2
C    1.10589957  -0.11460996   0.24108991
C    2.41411901  -0.03743999  -0.01816999
C    3.19535875   1.25648952  -0.11020996
C    4.55022812   0.84705973  -0.71804976
C    4.51750851  -0.66097975  -0.63701975
N    5.53876829  -1.38461947  -0.92301971
N    3.27615881  -1.06727958  -0.26153991
H    0.59048980  -1.06781960   0.28535989
H    0.51556981   0.78057969   0.41007984
H    3.34846854   1.67387938   0.89154971
H    2.69494915   2.00519919  -0.73185968
H    4.62388802   1.14858961  -1.76809931
H    5.39683771   1.25579953  -0.16061993
H    5.29945803  -2.37213922  -0.80858970
H    2.97071886  -2.02776933  -0.24017990

