%chk=mol_1940.chk
# wB97XD/Def2SVP opt pop=full gfinput

C 5 H 12 N 2

1 2
N    1.885229   0.024188  -0.013171
C    4.629111   0.023376   0.086720
C    5.691326   2.117835   1.756141
C    8.402214   1.242211   2.154666
C    8.124405  -1.598236   2.629970
N   10.375995  -2.993326   1.876063
C    5.720012  -2.410686   1.211825
H    1.271748  -1.378971  -1.180776
H    1.260542   1.680382  -0.774485
H    5.365273   0.257381  -1.839403
H    4.696272   2.220504   3.571941
H    5.594591   3.976513   0.854232
H    9.514884   1.621366   0.445257
H    9.317124   2.214343   3.734250
H    7.830175  -1.908888   4.658042
H   10.688537  -2.774401  -0.012359
H   10.084032  -4.878857   2.149564
H    6.076301  -3.808554  -0.275957
H    4.409298  -3.293056   2.555156

