%chk=mol_5329.chk
# wB97XD/Def2SVP opt freq pop=full gfinput

C 5 H 7 N 1 O 1

1 2
C    1.28638959  -0.29374990   0.47501981
O    2.66454887  -0.01847999   0.24831991
C    3.05496883   1.29816949   0.11702996
C    2.23440933   2.36383891   0.13413994
C    4.54331827   1.45319951  -0.10546996
C    5.27820778   1.35358953   1.16457951
N    5.88315773   1.29960942   2.15412927
H    1.17019963  -1.37801945   0.56321979
H    0.67639977   0.04225998  -0.36974987
H    0.94541961   0.15995994   1.41116953
H    1.16323960   2.28589916   0.27774990
H    2.62203908   3.37172890   0.01313000
H    4.76450825   2.41661906  -0.58042979
H    4.88951826   0.68122977  -0.80297971

