%chk=mol_0285.chk
# wB97XD/Def2SVP opt pop=full gfinput

C 4 H 6 N 2

1 2
C    1.816688  -0.025228  -0.014494
C    4.606264   0.083923  -0.001757
C    6.280901   2.077565   0.004724
N    8.728815   1.230363   0.016535
C    8.565392  -1.244574   0.017404
N    6.107633  -2.030719   0.006179
H    0.999797   1.875118   0.003704
H    1.119001  -1.037384   1.649164
H    1.133496  -0.999457  -1.706536
H    5.854863   4.078860   0.001304
H   10.138437  -2.549826   0.025757
H    5.516186  -3.846670   0.004346

