%chk=mol_6923.chk
# wB97XD/Def2SVP opt pop=full gfinput

C 6 H 7 N 1

1 2
C    1.889726   0.000000   0.000000
C    4.138803   0.000000   0.000000
C    6.795758   0.000000   0.000000
C    8.226639  -2.071593  -0.123286
C   10.945067  -1.385226  -0.108792
N   11.034772   1.396564  -0.328359
C    8.419315   2.295469   0.110133
H   -0.123040  -0.004951   0.002211
H    7.538798  -3.991234  -0.200953
H   11.840363  -1.985365   1.654701
H   11.946320  -2.260093  -1.692382
H   11.492256   1.821488  -2.152247
H    7.895881   3.680960  -1.335885
H    8.299658   3.197322   1.968943

