%chk=mol_4697.chk
# wB97XD/Def2SVP opt freq pop=full gfinput

C 5 H 11 N 1 O 1

1 2
C    1.09831965   0.28396988  -0.47471982
C    2.58824897   0.13473994  -0.20866993
N    3.20565867   1.45726943  -0.09994996
C    4.64414835   1.33983946   0.16600993
C    5.27255821   2.72703910   0.22170992
C    6.75368738   2.66054893   0.49045980
O    7.38057756   1.62716937   0.69943976
H    0.62772977  -0.70205975  -0.54893976
H    0.91523969   0.81645966  -1.41470945
H    0.60212976   0.83342969   0.33310989
H    3.04086876  -0.42980984  -1.03124964
H    2.73211908  -0.43362981   0.71701974
H    2.75826883   1.97328925   0.65794975
H    5.12592793   0.75427973  -0.62677974
H    4.81164837   0.81547970   1.11509955
H    4.81985807   3.33013868   1.01665962
H    5.13339806   3.25295877  -0.72944975
H    7.26776695   3.63699865   0.50467980

