%chk=mol_6190.chk
# wB97XD/Def2SVP opt pop=full gfinput

C 5 H 9 N 1 O 1

1 2
O    3.625118  -0.530465   1.558608
C    5.469982  -0.183096  -0.379627
C    4.406085  -0.929556  -2.911860
C    2.058970  -1.739039  -3.396197
C    6.485049   2.485670  -0.295156
C    4.861547   4.711295   0.449471
N    6.791184   3.735497   2.171843
H    4.265074   0.463493   2.978000
H    7.031331  -1.474572   0.053857
H    5.730141  -0.823410  -4.483885
H    0.658721  -1.913763  -1.904863
H    1.490011  -2.266519  -5.297016
H    7.986493   2.793677  -1.656439
H    2.916358   4.385828   0.996358
H    5.232822   6.533671  -0.408464
H    8.353251   4.878819   2.160599

