%chk=mol_3753.chk
# wB97XD/Def2SVP opt pop=full gfinput

C 5 H 10 O 2

1 2
O    5.279045   4.852703   3.889378
C    4.896677   2.405886   2.819623
C    5.895360   2.319204   0.110530
C    8.753230   2.432909  -0.060868
C   10.140932   0.328321  -0.357291
C    9.956211   5.015541  -0.026192
O   10.008273   5.982703   2.468209
H    4.603146   4.781385   5.602981
H    2.861291   2.030076   2.823213
H    5.831733   1.001120   4.014988
H    5.092774   3.880477  -0.992050
H    5.222599   0.570074  -0.776564
H    9.282769  -1.534155  -0.422562
H   12.187052   0.412357  -0.506258
H    8.921548   6.331943  -1.242155
H   11.906239   4.953652  -0.720307
H    8.269101   5.883852   3.098376

