%chk=mol_5766.chk
# wB97XD/Def2SVP opt pop=full gfinput

C 4 H 11 N 1 O 2

1 2
N    2.715574  -1.038556   2.905870
C    5.073367  -0.513609   1.539239
C    5.492716   2.342523   1.135329
C    5.649468   3.792831   3.643543
O    3.316129   3.715598   4.974364
C    7.912605   2.807094  -0.386355
O    7.744325   1.613032  -2.786496
H    2.546538  -2.952357   3.114042
H    1.233405  -0.533167   1.770503
H    5.004165  -1.502880  -0.277809
H    6.650891  -1.312320   2.617403
H    3.874411   3.052437   0.044843
H    6.096993   5.784338   3.309345
H    7.121263   3.009521   4.869900
H    2.750043   1.946342   4.890479
H    9.570839   2.058724   0.601538
H    8.192870   4.833712  -0.699482
H    9.260905   2.063052  -3.725160

