%chk=mol_6365.chk
# wB97XD/Def2SVP opt pop=full gfinput

C 5 H 5 N 1 O 1

1 2
O    1.874552   0.157131   0.000000
N    4.512363  -0.081768   0.000000
C    5.499368   2.139548   0.000000
C    8.206910   2.079757   0.000000
C   10.455987   2.079757   0.000000
C   13.112942   2.079757   0.000000
C   14.442515   4.229755  -0.000000
H    1.321240  -1.602015   0.000000
H    4.472321   3.948337  -0.000000
H   14.084072   0.271270  -0.000000
H   13.529248   6.067060   0.000000
H   16.491320   4.188748   0.000000

