%chk=mol_5492.chk
# wB97XD/Def2SVP opt freq pop=full gfinput

C 5 H 10 N 2

1 2
C    0.88554966   0.15917994  -0.16029994
C    2.31880927  -0.21286991   0.00426000
C    3.01644897  -1.02485967  -1.05066955
C    3.37510872   0.42504984  -0.86076969
N    4.65064812   0.82640970  -0.27353990
C    5.78165770   0.86076969  -1.03642964
N    6.01752758   0.27345991  -2.15449929
H    0.65311974   1.03839958   0.44964984
H    0.24237992  -0.66351974   0.16932994
H    0.63484973   0.39120984  -1.20097959
H    2.56018901  -0.43068984   1.03811967
H    2.47068930  -1.29565942  -1.94733930
H    3.72793841  -1.77462935  -0.72392976
H    3.03758907   1.12121964  -1.62575936
H    4.61807823   1.50378942   0.48345983
H    6.56984758   1.48508942  -0.58306980
H    5.19842815  -0.28062990  -2.41438913

