%chk=mol_5899.chk
# wB97XD/Def2SVP opt pop=full gfinput

C 4 H 8 N 2 O 1

1 2
N    1.897209   2.080192  -2.413388
N    4.387604   1.501161  -2.371134
C    5.554793   2.454263  -0.448111
C    8.282235   1.941618  -0.185363
C   10.096637   2.601586  -2.285624
C   10.073525   4.138311   0.090216
O   12.159556   3.730452   1.771902
H    1.166641   1.582154  -4.134097
H    0.926041   0.989328  -1.144683
H    4.633514   3.622038   1.016729
H    8.709445   0.253904   0.897828
H    9.329030   3.440473  -3.990346
H   11.660630   1.321939  -2.614361
H    9.299305   6.035388  -0.022148
H   13.643766   4.667302   1.221991

