%chk=mol_4494.chk
# wB97XD/Def2SVP opt freq pop=full gfinput

C 7 H 14

1 2
C    1.15961957   3.06805897  -0.95137966
C    2.62960887   3.06866884  -0.56897980
C    3.20217896   1.65161943  -0.53052980
C    4.64712811   1.66089940  -0.12915996
C    5.58484793   0.59907979  -0.64893973
C    5.71251774   2.02026939  -1.13517952
C    6.87160778   2.86031890  -0.72028977
H    0.77640975   4.09291840  -0.98557961
H    0.56498981   2.50711894  -0.22343992
H    1.01059961   2.61703897  -1.93773937
H    2.75105906   3.54720879   0.41095984
H    3.19017863   3.67711854  -1.28865957
H    3.07661891   1.17829955  -1.51265943
H    2.64172888   1.04398966   0.19030993
H    4.77890825   1.98095930   0.89951968
H    5.20255804  -0.13913995  -1.34462953
H    6.33681774   0.21214992   0.02977999
H    5.40712786   2.23525906  -2.15271926
H    7.23186731   2.60054898   0.28106990
H    6.58727789   3.91650844  -0.71622974
H    7.70056725   2.73217916  -1.42345941

