%chk=mol_2878.chk
# wB97XD/Def2SVP opt pop=full gfinput

C 6 H 10 O 1

1 2
C    1.892939  -0.102064   0.005518
C    4.762110   0.000000   0.000000
C    5.672996   2.572238   0.000000
C    6.423746   4.692322   0.000000
C    7.334632   7.264561   0.000000
O    5.254025   8.950764  -0.310784
C    6.051357  11.512967  -0.323124
H    1.242268  -2.066699   0.005367
H    1.105471   0.834579  -1.665737
H    1.111990   0.832141   1.681195
H    5.472023  -1.006903  -1.664395
H    5.478505  -1.009227   1.660200
H    8.681326   7.548265  -1.547478
H    8.294386   7.685233   1.786245
H    4.386395  12.711961  -0.565897
H    7.349315  11.861603  -1.894791
H    6.957915  11.999572   1.470679

