%chk=mol_5367.chk
# wB97XD/Def2SVP opt freq pop=full gfinput

C 4 H 7 N 1 O 2

1 2
C    1.81359923  -0.40496984  -0.94763964
O    3.15262890   0.05516998  -0.81142974
C    3.33604860   1.34661949  -0.35176986
C    2.37172914   2.22031927  -0.01423000
C    4.76042795   1.82154930  -0.21611992
N    5.68473768   0.88628966  -0.57212979
O    5.08633804   2.93513894   0.17379993
H    1.84822929  -1.43330944  -1.31957948
H    1.26347947   0.19785993  -1.67760932
H    1.30149949  -0.41481984   0.02002999
H    1.31606948   1.99172926  -0.07024997
H    2.62435889   3.21782875   0.33817989
H    5.39592791  -0.02858999  -0.89178967
H    6.66427755   1.12108958  -0.51159978

