%chk=mol_5619.chk
# wB97XD/Def2SVP opt freq pop=full gfinput

C 4 H 6 N 2 O 1

1 2
N    2.03008938  -0.40616983  -1.25174952
C    2.60750890  -0.01231000   0.03115999
C    2.92068887   1.43426943   0.05197998
C    2.20721936   2.57556915  -0.22774991
C    3.12153888   3.61561847   0.00724000
N    4.31074858   3.15829897   0.40786985
O    4.18163824   1.77872932   0.43569982
H    1.88170934  -1.41378951  -1.24874961
H    2.71632886  -0.22682990  -1.98467922
H    3.50985861  -0.60480976   0.21752992
H    1.89413929  -0.23998991   0.83051974
H    1.18088961   2.63450885  -0.55814981
H    2.97846889   4.68198824  -0.09344997

