%chk=mol_2481.chk
# wB97XD/Def2SVP opt pop=full gfinput

C 6 H 10 O 1

1 2
C    1.835170   0.073832   0.690865
C    4.663882  -0.022091   0.101346
C    5.413971   2.269334  -1.505318
O    7.925908   2.168744  -2.498105
C    8.536706  -0.092275  -3.576571
C    7.408483  -2.296376  -3.079857
C    5.341708  -2.537543  -1.179983
H    1.333051   1.833469   1.655268
H    1.274753  -1.509967   1.897134
H    0.716735  -0.029858  -1.050915
H    5.716667   0.083224   1.886740
H    5.301343   3.981804  -0.343212
H    4.106054   2.537694  -3.091157
H   10.119993   0.103009  -4.856124
H    8.034926  -3.996733  -4.039913
H    3.692430  -3.373936  -2.103605
H    5.940751  -3.885806   0.282816

