%chk=mol_2966.chk
# wB97XD/Def2SVP opt pop=full gfinput

C 5 H 6 O 2

1 2
C    4.715528  -1.885795   1.370165
C    6.233602  -0.003534   2.127851
C    6.327370   2.564547   0.901513
C    5.430884   4.488496   2.801954
O    6.797534   6.077473   3.799200
C    8.982699   3.055347  -0.023527
O    9.742861   2.390163  -2.119649
H    4.747049  -3.706301   2.318940
H    3.433859  -1.681063  -0.219813
H    7.497885  -0.340094   3.718981
H    5.060611   2.683883  -0.733100
H    3.401035   4.395503   3.278410
H   10.306944   3.896823   1.351343

