%chk=mol_6304.chk
# wB97XD/Def2SVP opt freq pop=full gfinput

C 4 H 3 N 1 O 2

1 2
O    0.86160970   1.23016953  -0.00530000
C    2.02063918   0.83423972  -0.00343000
N    3.08536887   1.68511939  -0.00191000
C    4.38641834   1.26371944  -0.00073000
O    4.75696802   0.09874997  -0.00011000
C    5.36888790   2.32497931  -0.00010000
C    6.18467760   3.20667887   0.00041000
H    2.28697920  -0.23573992  -0.00293000
H    2.87131882   2.67055893  -0.00248000
H    6.91946745   3.97899866   0.00086000

