%chk=mol_2453.chk
# wB97XD/Def2SVP opt freq pop=full gfinput

C 6 H 12 O 1

1 2
C    1.03078961   0.01025000  -0.12207995
C    2.54167914   0.01030000   0.04456998
C    3.02574873   1.07784963   1.00794971
O    4.31389809   0.64916974   1.46079946
C    4.40269852  -0.77463967   1.30431950
C    3.09958887  -1.25552952   0.67877972
C    3.30423880  -2.39805913  -0.30406991
H    0.71028972  -0.78957969  -0.79650968
H    0.68873978   0.96315968  -0.53835976
H    0.52306980  -0.13671996   0.83730972
H    3.01486874   0.17134994  -0.93281966
H    2.37577915   1.17237961   1.88505924
H    3.11433887   2.05928922   0.53273982
H    5.27930784  -0.99162960   0.68322974
H    4.56125832  -1.22465944   2.28834915
H    2.42909908  -1.59627938   1.48024952
H    3.98052835  -2.10830927  -1.11615956
H    2.35460925  -2.70584893  -0.75304973
H    3.73936868  -3.26723862   0.19944993

