%chk=mol_4383.chk
# wB97XD/Def2SVP opt freq pop=full gfinput

C 7 H 14

1 2
C    2.24812913  -0.50681978  -1.45677936
C    2.41929913   0.01447999  -0.03916999
C    3.27249885   1.27504957  -0.03232999
C    2.62832904   2.57612920  -0.57707977
C    3.31860876   3.34419870   0.57782978
C    4.64980793   3.99773836   0.24229991
C    3.39407873   1.99640930   1.33528948
H    1.65175939  -1.42437947  -1.45561945
H    3.21822882  -0.72933972  -1.91325927
H    1.74097931   0.22876991  -2.08992934
H    2.89912891  -0.75860971   0.57132977
H    1.43375945   0.20803992   0.39910987
H    4.26153851   1.08488953  -0.47453982
H    1.53352940   2.59760904  -0.51552981
H    2.92549896   2.85897899  -1.59118950
H    2.65772891   4.07297850   1.06290960
H    5.33967829   3.30117869  -0.24569990
H    5.13327837   4.36921835   1.15196955
H    4.49981833   4.84962797  -0.42921984
H    4.31789875   1.80288935   1.88816929
H    2.54427910   1.83227932   2.00958920

