%chk=mol_7045.chk
# wB97XD/Def2SVP opt freq pop=full gfinput

C 6 H 7 N 1

1 2
C    0.92493969   0.10224997  -0.02782999
C    2.25983906   0.05063998  -0.04824998
C    3.05373883   1.22792959  -0.01697999
C    3.74105859   2.21141911   0.01097000
C    4.58326817   3.36824870   0.05030998
C    4.77918863   4.16755819  -1.21214950
N    3.97158861   4.68554831  -0.11631995
H    0.33547986  -0.80848968  -0.05087998
H    0.39006984   1.04697967   0.01277999
H    2.76987886  -0.90729964  -0.08839997
H    5.41662836   3.32370853   0.74429971
H    4.23571825   3.88222861  -2.10471916
H    5.73796797   4.64053822  -1.38077950
H    4.48353863   5.38277769   0.42466986

