%chk=mol_1926.chk
# wB97XD/Def2SVP opt freq pop=full gfinput

C 6 H 13 N 1

1 2
N    0.99312961   0.02786999   0.10186996
C    2.45544910   0.01280000   0.02551999
C    2.94503880  -1.33578944  -0.51897979
C    2.60467911  -1.53790951  -1.99637926
C    3.10901880  -0.37913987  -2.85232878
C    2.61340904   0.96903968  -2.33574915
C    2.95285892   1.16496956  -0.85757965
H    0.68023974   0.90660965   0.51092982
H    0.67502975  -0.71144974   0.72782969
H    2.84765887   0.14883995   1.04013956
H    2.52715921  -2.16171908   0.06979997
H    4.03477859  -1.39107955  -0.39676985
H    3.05088878  -2.47468925  -2.34920907
H    1.51984942  -1.63957942  -2.11899924
H    4.20603848  -0.38371986  -2.85842896
H    2.78473902  -0.51849979  -3.88972855
H    3.06575894   1.77516937  -2.92469907
H    1.52904952   1.04177964  -2.48252916
H    4.04309845   1.24410951  -0.75313973
H    2.54058909   2.12014914  -0.51013982

