%chk=mol_6486.chk
# wB97XD/Def2SVP opt freq pop=full gfinput

C 4 H 6 N 2 S 1

1 2
C    1.08246958   0.13799995   0.00208000
C    2.56619906   0.04104998  -0.00091000
N    3.26272869   1.18445957  -0.00719000
S    4.86757803   0.73104972  -0.00885000
N    4.69823790  -0.92905968  -0.00091000
C    3.37787867  -1.15416968   0.00361000
C    2.92123890  -2.56907892   0.01107000
H    0.60064977  -0.84236968  -0.02240999
H    0.73578972   0.69934970  -0.87200963
H    0.73752970   0.65648973   0.90288961
H    1.83263934  -2.65593886   0.04352998
H    3.32177877  -3.09385872   0.88508970
H    3.27020884  -3.08558893  -0.88954961

