%chk=mol_1360.chk
# wB97XD/Def2SVP opt freq pop=full gfinput

C 6 H 11 N 1

1 2
C    1.06183958   0.51289982   0.15415993
C    2.40072918   0.50237983   0.10468996
C    3.28586888   1.52317941   0.75088972
N    4.08137846   2.19277906  -0.27561989
C    5.00425816   3.18029881   0.28967988
C    6.44127798   2.80062890   0.50629979
C    6.07532787   3.74751878  -0.59918982
H    0.48404980  -0.26409990  -0.33675990
H    0.51479983   1.29164958   0.67675978
H    2.90386915  -0.30003989  -0.43059984
H    3.94190860   1.01251960   1.46602952
H    2.69136906   2.25695896   1.30941951
H    3.44182873   2.64232898  -0.93062967
H    4.56474829   3.87872863   0.99952960
H    6.75799751   1.80133939   0.23037991
H    6.94729757   3.20394874   1.37514949
H    6.33062744   4.79373837  -0.47900984
H    6.14848757   3.38576865  -1.61835933

