%chk=mol_1897.chk
# wB97XD/Def2SVP opt freq pop=full gfinput

C 6 H 9 N 1

1 2
N    1.06849968  -0.13079995   0.00718000
C    2.52432895  -0.05225998  -0.03943998
C    3.23651886  -0.59939981  -1.24267948
C    3.16932893   0.89169967  -1.02112961
C    4.38075829   1.66855943  -0.61042976
C    5.07399797   1.97343922  -1.86819935
C    5.64648771   2.22655916  -2.89144897
H    0.68600971   0.55595976   0.65617973
H    0.76487970  -1.04317963   0.34616989
H    3.01896882  -0.19517994   0.91916966
H    2.64611888  -1.00995958  -2.05406928
H    4.18290854  -1.10420954  -1.08857965
H    2.50689888   1.46821952  -1.66014934
H    5.02866840   1.09491956   0.06067998
H    4.08179855   2.58707905  -0.09579996
H    6.15186739   2.44951916  -3.80381846

