%chk=mol_0950.chk
# wB97XD/Def2SVP opt pop=full gfinput

C 4 H 9 N 1 O 1

1 2
C    1.590923   0.488211  -0.569450
C    4.317627   0.100439   0.139386
C    4.900740   0.321140   2.927885
O    4.332575  -1.995173   4.164219
C    5.861156  -1.740683  -1.417332
N    6.213665   0.975307  -1.704136
H    1.290588   0.363716  -2.613945
H    0.942369   2.353011   0.050626
H    0.398997  -0.944561   0.329115
H    3.805606   1.839573   3.809272
H    6.904681   0.724067   3.259154
H    2.531477  -2.289781   3.966932
H    4.966654  -2.702365  -2.988224
H    7.373768  -2.782754  -0.509489
H    7.846237   1.537065  -0.839681

