%chk=mol_3908.chk
# wB97XD/Def2SVP opt freq pop=full gfinput

C 5 H 9 N 1 O 1

1 2
C    0.99032962  -0.01265000   0.05673998
C    2.50678897  -0.00372000   0.06515998
C    3.10404873   1.16670966   0.83572972
C    4.48435831   0.65506977   1.24326956
C    4.27803850  -0.83684969   1.32813954
O    5.06019831  -1.65254939   1.78265929
N    3.06440878  -1.13921964   0.74223971
H    0.61301976  -0.88907969  -0.48072982
H    0.59945977   0.88420969  -0.43379983
H    0.58394980  -0.05295998   1.07315958
H    2.88937902  -0.01672999  -0.96281964
H    2.51695919   1.38228941   1.73776937
H    3.15470886   2.08372927   0.24119991
H    5.23226786   0.86637968   0.47334981
H    4.80015802   1.06419969   2.20560908
H    2.84277892  -2.10791922   0.54617977

