%chk=mol_4837.chk
# wB97XD/Def2SVP opt pop=full gfinput

C 5 H 7 N 1 O 1

1 2
C    2.504908  -1.130680  -0.170907
C    5.316196  -0.829646   0.153937
O    6.676970  -2.647884   0.649593
C    6.359854   1.813192  -0.163386
C    9.215155   1.870205   0.209627
C   10.184452   4.447452  -0.105579
N   10.915399   6.499448  -0.361996
H    1.518962   0.027193   1.225998
H    1.978411  -3.109091   0.110322
H    1.964106  -0.560493  -2.080475
H    5.427898   3.044500   1.217664
H    5.867732   2.476996  -2.063146
H   10.138740   0.609985  -1.151410
H    9.702988   1.171347   2.098333

