%chk=mol_1296.chk
# wB97XD/Def2SVP opt pop=full gfinput

C 5 H 8 N 2

1 2
C    5.341178  -3.096467  -0.406045
C    6.897009  -1.302456   0.461528
C    6.457421   1.361472   0.068937
C    8.042410   3.156882   0.896146
N    7.746857   5.720239   0.626822
C    9.303897   7.649536   1.344105
N   11.530466   7.571962   2.309604
H    5.745410  -5.078280  -0.060604
H    3.645811  -2.657616  -1.473344
H    8.571079  -1.860983   1.518168
H    4.753663   1.892693  -0.948113
H    9.749664   2.626512   1.907527
H    6.103891   6.241161  -0.217375
H    8.437099   9.514866   0.995980
H   12.100105   5.737511   2.492587

