%chk=mol_1702.chk
# wB97XD/Def2SVP opt pop=full gfinput

C 5 H 8 N 2

1 2
C    2.059291  -0.036434  -0.292133
N    4.724977   0.100137   0.363224
C    5.812136   2.264799   0.264826
N    8.302871   2.550620   0.886622
C    8.934776   5.183065   1.164563
C    6.566780   6.391961   0.171682
C    4.716303   4.750960  -0.384333
H    1.448985  -2.011443  -0.214352
H    1.705327   0.639011  -2.215912
H    0.895957   1.023872   1.051292
H    9.045287   1.235805   2.055739
H   10.582013   5.679080   0.021411
H    9.254915   5.685562   3.143805
H    6.394266   8.414213  -0.051306
H    2.845323   5.109819  -1.081150

