%chk=mol_5431.chk
# wB97XD/Def2SVP opt freq pop=full gfinput

C 4 H 8 N 2 O 1

1 2
C    2.29761910  -0.62237978  -0.16377994
O    3.08737898   0.46149984  -0.65018976
N    2.93929887   1.50698936   0.26902992
C    4.19127846   1.92197931   0.88008970
C    3.95601845   3.43343878   1.02446961
N    2.89320874   3.79896855   0.03921999
C    2.41227913   2.63670897  -0.29909989
H    2.39490914  -1.45573938  -0.86451972
H    1.24252951  -0.33553985  -0.10810996
H    2.65632915  -0.94889969   0.81768966
H    5.04167795   1.73013937   0.21532993
H    4.36405849   1.43405950   1.84315920
H    4.87254810   3.99768853   0.82540971
H    3.60350871   3.68348861   2.03177929
H    1.60895944   2.48655915  -1.03709960

