%chk=mol_7093.chk
# wB97XD/Def2SVP opt pop=full gfinput

C 6 H 7 N 1

1 2
C    1.623237   0.194037  -0.131241
C    4.408429   0.109321  -0.605601
C    6.086638   1.583005   0.599894
C    8.813342   1.587162   0.220626
C   10.288651   3.165367   1.557663
C    9.964979  -0.081239  -1.574066
N   10.915795  -1.426857  -3.024658
H    0.962438  -1.658480   0.507203
H    0.627049   0.673857  -1.878633
H    1.113559   1.591168   1.306216
H    5.012290  -1.253625  -2.023556
H    5.375893   2.914185   2.001900
H    9.519949   4.469316   2.941774
H   12.327345   3.197700   1.302664

