%chk=mol_0013.chk
# wB97XD/Def2SVP opt freq pop=full gfinput

C 2 H 3 N 1

1 2
C    0.99999964   0.00000000   0.00000000
C    2.44399905   0.00000000   0.00000000
N    3.59500861   0.00000000   0.00000000
H    0.60642982   1.02151966   0.01169000
H    0.60641980  -0.52088982   0.87882966
H    0.60642982  -0.50062984  -0.89049965

