%chk=mol_2989.chk
# wB97XD/Def2SVP opt pop=full gfinput

C 5 H 10 O 2

1 2
C    1.963123   0.452967  -0.159323
C    4.851796   0.260064  -0.028743
C    5.638225  -1.340137   2.254462
C    5.863159  -0.851964  -2.513959
O    8.522759  -1.250621  -2.424575
C    5.903599   2.907552   0.357177
O    7.735140   3.750520  -0.795650
H    1.367047   1.663885  -1.730441
H    1.181117   1.273165   1.574350
H    1.099745  -1.409282  -0.423847
H    4.855916  -0.571567   4.011794
H    7.694889  -1.382599   2.481607
H    4.971529  -3.293188   2.062882
H    5.455035   0.385466  -4.124800
H    4.984493  -2.686076  -2.898859
H    9.287721   0.426984  -2.242236
H    4.987328   4.042332   1.848738

