%chk=mol_0387.chk
# wB97XD/Def2SVP opt freq pop=full gfinput

C 5 H 9 N 1

1 2
C    1.59401929   0.29054990  -1.71818948
C    2.31404924  -0.21222992  -0.70613974
C    2.97474885   0.60085976   0.36894989
N    4.40384817   0.27559990   0.42709982
C    5.26686811   1.29160953  -0.17041993
C    5.15534830   1.14688957   1.32498956
H    1.14517951  -0.36754984  -2.45629907
H    1.44280946   1.35830951  -1.83755922
H    2.43730903  -1.29083955  -0.63194978
H    2.51349902   0.32865989   1.32628942
H    2.77923894   1.67159939   0.22018991
H    4.81357813   2.15280914  -0.64486974
H    6.16265774   0.92070967  -0.65283978
H    5.97652817   0.67700976   1.85305929
H    4.61861849   1.90296936   1.88383937

