%chk=mol_2684.chk
# wB97XD/Def2SVP opt freq pop=full gfinput

C 5 H 10 O 2

1 2
C    2.11364913  -0.57758981  -1.36825943
C    2.46487904  -0.03264999   0.00812000
C    3.23332882   1.28249955  -0.08980996
O    4.49333858   1.06587958  -0.77861971
C    2.41772914   2.51677895  -0.53949982
O    2.87872910   3.27748895   0.60702980
C    3.33667874   2.05654931   1.24500954
H    1.54989946  -1.51103950  -1.27291954
H    3.01333880  -0.78519970  -1.95646918
H    1.50110948   0.13354994  -1.93187928
H    3.06428885  -0.77446967   0.54856980
H    1.53854942   0.10343996   0.57909977
H    4.92474842   1.94010925  -0.78599972
H    1.32813954   2.41254902  -0.53501981
H    2.73950911   2.97379875  -1.47953939
H    4.34852839   2.16898942   1.64511931
H    2.65804887   1.74873924   2.04697919

