%chk=mol_5703.chk
# wB97XD/Def2SVP opt freq pop=full gfinput

C 5 H 13 N 1 O 1

1 2
N    1.27555954  -0.21119992   0.89083970
C    2.56101894   0.45222983   1.06876957
C    2.91833901   1.25979948  -0.17789993
C    4.27116823   1.95703924  -0.01755999
C    4.63202810   2.76351881  -1.26332951
C    5.97741795   3.45938873  -1.11310947
O    6.24962759   4.19343853  -2.29845929
H    0.54751980   0.48406982   0.73245972
H    1.02366960  -0.69894969   1.74971938
H    3.32944870  -0.30411988   1.26046944
H    2.51281905   1.10880959   1.94429934
H    2.14162922   2.01115918  -0.37026986
H    2.95011878   0.59773976  -1.05280960
H    5.04964828   1.20857954   0.17359993
H    4.24037838   2.62186885   0.85413969
H    3.85663867   3.51227856  -1.46876943
H    4.65799809   2.10999918  -2.14441919
H    6.77951717   2.72994900  -0.96269965
H    5.96512747   4.15514851  -0.26823989
H    7.11709690   4.61637831  -2.17991924

