%chk=mol_1665.chk
# wB97XD/Def2SVP opt pop=full gfinput

C 7 H 8

1 2
C    2.274153  -0.446410  -1.199182
C    4.676373  -0.063457  -0.506900
C    5.886705   2.372060  -0.309839
C    8.350776   2.652306   0.275862
C    9.056229   5.395471   0.360144
C    6.598716   6.647735  -0.257513
C    4.818291   4.884734  -0.628882
H    1.515882  -2.349515  -1.299111
H    1.007923   1.089465  -1.685296
H    5.832848  -1.703172  -0.054613
H    9.673263   1.141376   0.641052
H   10.500415   5.839613  -1.050159
H    9.722433   5.937784   2.240232
H    6.318299   8.664167  -0.375885
H    2.866714   5.250679  -1.093169

