%chk=mol_4177.chk
# wB97XD/Def2SVP opt freq pop=full gfinput

C 5 H 11 N 1 O 1

1 2
C    0.91735965  -0.20881993  -0.09176996
C    2.40238905  -0.15002994  -0.12393995
O    2.98079872  -0.33831990  -1.42178953
C    3.11437893   0.96875966  -0.84289974
C    4.51684809   1.34868956  -0.48632979
C    4.54960823   2.19594908   0.78810972
N    5.90847778   2.61817908   1.10705960
H    0.53382981   0.43934983   0.70205975
H    0.58536977  -1.23113954   0.11215996
H    0.47206980   0.11119996  -1.03890967
H    2.87287903  -0.62639976   0.72392976
H    2.54162908   1.77877927  -1.27368951
H    4.94951820   1.91301930  -1.32305944
H    5.13763809   0.45296982  -0.35293987
H    4.14219856   1.62239945   1.62804937
H    3.91747832   3.08202887   0.66520971
H    6.50193787   1.80045938   1.24207962
H    5.90778780   3.11991882   1.99431932

