%chk=mol_1776.chk
# wB97XD/Def2SVP opt pop=full gfinput

C 7 H 8

1 2
C    1.889726   0.000000   0.000000
C    4.138803   0.000000   0.000000
C    6.867567   0.000000   0.000000
C    7.979010  -2.383209   1.228020
C    8.575993  -1.679173   3.970220
C    8.795542   1.130302   3.857441
C    7.850697   2.045364   1.696974
H   -0.123834   0.005386   0.007068
H    7.609039   0.220285  -1.919433
H    9.749928  -2.885272   0.266432
H    6.740691  -4.039687   1.113634
H   10.332229  -2.566418   4.602107
H    7.045126  -2.228327   5.249413
H    9.551867   2.271602   5.375364
H    7.757439   4.031599   1.224429

