%chk=mol_6546.chk
# wB97XD/Def2SVP opt freq pop=full gfinput

C 4 H 8 O 2 S 1

1 2
C    0.96181965   0.02965999  -0.04439998
C    2.44517899   0.06347997  -0.21652992
C    3.22183871   1.06326962   0.22917992
S    4.94033813   1.02782965  -0.03203999
C    5.49725819  -0.02248999   1.28663945
O    5.23655796   0.35192987  -1.28154945
O    5.46227789   2.35538912   0.22936992
H    0.67253977  -0.86296970   0.51802981
H    0.47382981  -0.00634000  -1.02309966
H    0.58786976   0.90749967   0.49179980
H    2.88349891  -0.77557969  -0.75622970
H    2.82773900   1.92631936   0.74821973
H    5.20127821   0.41570985   2.24185896
H    6.58640766  -0.08639996   1.23089957
H    5.06310797  -1.01662958   1.16359961

