%chk=mol_1804.chk
# wB97XD/Def2SVP opt pop=full gfinput

C 5 H 10 N 2

1 2
C    5.051880  -1.650260  -1.653170
N    4.613691   0.051042   0.465912
C    5.594912   2.618556   0.000000
C    4.544206   4.410602   2.093042
N    5.229023   7.088041   1.779801
C    8.323677   2.618556   0.000000
C   10.572753   2.618556   0.000000
H    4.155527  -3.472447  -1.255402
H    7.063456  -2.006171  -1.967942
H    4.210915  -0.917481  -3.396329
H    5.456792  -0.659307   2.044381
H    4.873490   3.301257  -1.820808
H    5.207159   3.788107   3.957313
H    2.474596   4.292211   2.112090
H    7.149363   7.248385   1.802648
H    4.588614   8.075650   3.303071
H   12.586558   2.615324  -0.011338

