%chk=mol_2520.chk
# wB97XD/Def2SVP opt freq pop=full gfinput

C 6 H 12 O 1

1 2
C    0.98075962   0.07500997   0.04893998
C    2.48471904  -0.10569996   0.01341000
O    3.15891886   0.92233962   0.79574972
C    4.11692858  -0.06416997   1.26910949
C    3.16986895  -1.21464956   0.86443967
C    2.38185906  -1.77447939   2.04611921
C    3.81672859  -2.32094932   0.04077999
H    0.48144981  -0.77372974  -0.43015984
H    0.69087970   0.98193967  -0.49256980
H    0.59872979   0.16407993   1.07084954
H    2.84024906  -0.06382997  -1.02531958
H    5.05862808   0.01161000   0.71473974
H    4.31722832   0.04566998   2.33880901
H    1.95904934  -0.97858965   2.66798902
H    3.02643895  -2.38318896   2.68967891
H    1.55705941  -2.40707898   1.70162940
H    4.41041851  -1.91660917  -0.78637969
H    3.05568886  -2.98123884  -0.38836986
H    4.48464823  -2.93037891   0.65935975

