%chk=mol_4113.chk
# wB97XD/Def2SVP opt freq pop=full gfinput

C 4 H 8 N 2 O 1

1 2
C    1.05441964  -0.06928997   0.14069994
C    2.56096911   0.00800000   0.02924999
N    3.07870889   1.19302952   0.05606998
C    4.54234838   1.24239957  -0.10186996
C    5.21136808  -0.09710996   0.17312993
O    4.53634834  -1.09657955  -0.59775978
N    3.24158859  -1.19281960  -0.07015997
H    0.71168971  -1.10700953   0.16542993
H    0.60420978   0.43486986  -0.71940976
H    0.73164970   0.43397984   1.05676961
H    4.75383806   1.55855942  -1.12994957
H    4.95117807   2.00408912   0.56995982
H    6.25983763  -0.07172997  -0.13942994
H    5.18237782  -0.36148986   1.23755956
H    2.72076893  -1.98624921  -0.43414983

