%chk=mol_0970.chk
# wB97XD/Def2SVP opt freq pop=full gfinput

C 6 H 12

1 2
C    0.91790968  -0.05864998   0.05204998
C    2.43684912  -0.12044996  -0.12774995
C    2.77648902  -0.93090963  -1.38156939
C    3.01486874   1.30665946  -0.17999993
C    4.51607800   1.33856952  -0.25291991
C    5.20520782   1.91080928  -1.24778962
H    0.65576977   0.48557982   0.96521962
H    0.49386981  -1.06512964   0.13044995
H    0.43825984   0.44597983  -0.79342973
H    2.85800886  -0.64353979   0.74107969
H    2.42296910  -0.42693982  -2.28742909
H    2.30928898  -1.92070925  -1.34130943
H    3.85596871  -1.08442950  -1.47611952
H    2.71554899   1.84971941   0.72526973
H    2.57762885   1.85113931  -1.02692962
H    5.05944824   0.87140965   0.56608981
H    4.70712805   2.39308906  -2.08339930
H    6.29078722   1.90697920  -1.24635947

