%chk=mol_5807.chk
# wB97XD/Def2SVP opt pop=full gfinput

C 4 H 8 N 2 O 1

1 2
N    2.135428   0.137119   0.891554
C    4.326660   0.427966  -0.132829
N    5.984423   2.364444   0.278489
C    5.260525   4.755156   1.400627
C    6.129951   6.654425  -0.537268
C    8.405559   5.325059  -1.621498
O    7.752847   2.691783  -1.685258
H    1.343539  -1.503353   0.226427
H    5.050312  -0.988327  -1.486194
H    6.274477   5.003636   3.189593
H    3.232433   4.928160   1.770692
H    4.680474   6.869514  -2.000351
H    6.555177   8.515711   0.247875
H    8.852422   5.971799  -3.532541
H   10.080026   5.554264  -0.423847

