%chk=mol_5935.chk
# wB97XD/Def2SVP opt pop=full gfinput

C 5 H 7 N 1 O 1

1 2
O    1.942771   0.130731  -0.077573
C    4.211123   0.069920   0.035999
C    6.563964   2.002429   0.128086
C    7.700464   0.062399  -1.824757
C    6.541306  -1.961366   0.070865
N    8.034738  -1.484796   2.410006
C    7.983337   1.311772   2.528057
H    6.279560   3.946901  -0.461585
H    9.760323   0.060528  -2.033118
H    6.861804   0.098001  -3.721022
H    6.259793  -3.889755  -0.571321
H    7.210798  -2.199698   4.001741
H    9.907343   2.070195   2.539338
H    6.982576   1.966619   4.216395

