%chk=mol_2122.chk
# wB97XD/Def2SVP opt pop=full gfinput

C 5 H 6 N 2

1 2
N    1.944207   0.030765   0.000000
C    4.483149  -0.033637   0.000000
N    5.927447  -1.969699   0.000000
C    5.857206   2.300987   0.000000
C    6.981744   4.248747   0.000000
C    8.310222   6.549734   0.000000
C    7.125930   8.781368  -0.000000
H    1.020036   1.704703  -0.000000
H    0.905595  -1.566715   0.000000
H    4.847223  -3.566423   0.000000
H   10.361803   6.476602  -0.000000
H    5.079376   8.923268  -0.000000
H    8.199276  10.528080   0.000000

