%chk=mol_2475.chk
# wB97XD/Def2SVP opt freq pop=full gfinput

C 6 H 8 O 1

1 2
C    0.98236966  -0.01359999   0.10005996
C    2.47110915   0.01860999  -0.05112998
C    3.15962863   1.16066957  -0.20443992
O    4.52900839   1.22963953  -0.35166985
C    5.23558807   0.04733998  -0.34839985
C    4.67232800  -1.15787947  -0.20296992
C    3.18937874  -1.30794954  -0.02745999
H    0.54642975   0.99073964   0.07274997
H    0.70625973  -0.47250980   1.05479968
H    0.53081983  -0.59609979  -0.70949972
H    2.72443914   2.15094924  -0.23184991
H    6.29418802   0.22288992  -0.47847980
H    5.28419828  -2.05326915  -0.20929992
H    2.80252910  -1.94694924  -0.82941967
H    2.99607897  -1.81061935   0.92721969

