%chk=mol_3500.chk
# wB97XD/Def2SVP opt freq pop=full gfinput

C 6 H 10 O 1

1 2
O    1.01714969  -0.02807999   0.06336997
C    2.45594907  -0.01179000  -0.00861000
C    3.11829877   1.02083957  -0.97932959
C    2.68999910   0.02498999  -2.10043931
C    3.13372898  -1.00132966  -1.01260960
C    4.63164854  -0.74783969  -0.84805971
C    4.62038851   0.78540969  -0.82289970
H    0.78315973   0.77930969   0.55167979
H    2.86947870  -0.02850999   1.00614965
H    2.73369884   2.03944921  -1.01135957
H    3.27409887   0.04458998  -3.02609873
H    1.62669945   0.02142999  -2.36698914
H    2.76477909  -2.02370930  -1.07867956
H    5.02321815  -1.16945946   0.08305997
H    5.21286821  -1.13900959  -1.68907940
H    5.19465780   1.21213961  -1.65093935
H    5.00567770   1.18213952   0.12098996

