%chk=mol_3625.chk
# wB97XD/Def2SVP opt pop=full gfinput

C 5 H 10 O 2

1 2
O    3.180957   0.381271   2.646656
C    3.957238   0.606375   0.087343
C    5.983307   2.554305  -0.024226
C    6.130385   4.478424  -2.124563
C    5.306748   5.285829   0.483656
C    6.967118   6.809779   2.175642
O    6.729825   5.927938   4.702073
H    1.824077  -0.857633   2.677610
H    2.317466   1.125407  -1.062045
H    4.676430  -1.222369  -0.556468
H    7.745175   1.843579   0.746801
H    4.709991   4.435849  -3.599607
H    7.990764   5.032719  -2.780335
H    3.330283   5.749076   0.767569
H    6.403375   8.798301   2.136411
H    8.957245   6.691955   1.623917
H    5.951900   4.256948   4.641300

