%chk=mol_4550.chk
# wB97XD/Def2SVP opt freq pop=full gfinput

C 6 H 13 N 1

1 2
C   -1.52451932   0.75362968   0.13283995
C   -1.53347945  -0.75135976  -0.09853996
C   -0.30230987  -1.49181938   0.41761985
C    0.95588958  -1.18829954  -0.39291987
N    1.71486938  -0.00895000  -0.00365000
C    0.97272962   1.18667960   0.37350985
C   -0.30155990   1.48407948  -0.41570985
H   -2.42126918   1.17582965  -0.33756986
H   -1.62101948   0.95566964   1.20692956
H   -1.65825939  -0.95235962  -1.17018950
H   -2.42139912  -1.16748953   0.39391986
H   -0.14485994  -1.29439962   1.48452938
H   -0.50493979  -2.56721902   0.33286989
H    1.63403928  -2.04639912  -0.30794990
H    0.71077973  -1.12054968  -1.45981944
H    2.36195922  -0.24599990   0.74812973
H    0.74356967   1.14923954   1.44559944
H    1.65818930   2.03280926   0.24436991
H   -0.49888980   2.56079888  -0.33771989
H   -0.16534993   1.27595961  -1.48375940

