%chk=mol_1541.chk
# wB97XD/Def2SVP opt pop=full gfinput

C 5 H 10 N 2

1 2
C    1.878444  -0.076043  -0.022563
C    4.762110   0.000000   0.000000
N    5.765970  -1.329214  -2.202192
C    5.672996   2.572238   0.000000
C    6.423746   4.692322   0.000000
C    7.334632   7.264561   0.000000
N    5.229118   9.023310  -0.235876
H    1.102825   0.891138   1.637693
H    1.184140  -2.027241   0.007219
H    1.096551   0.854459  -1.702076
H    5.433265  -0.973700   1.699695
H    5.168306  -0.427740  -3.794797
H    5.013009  -3.096940  -2.272981
H    8.661295   7.568429  -1.558967
H    8.350397   7.664786   1.757445
H    4.374168   8.729212  -1.933284
H    5.918755  10.815073  -0.274577

