%chk=mol_1809.chk
# wB97XD/Def2SVP opt freq pop=full gfinput

C 7 H 10

1 2
C    1.00821960  -0.05171998   0.23471992
C    2.42859912   0.08567997  -0.20400992
C    3.16499877   1.20755947  -0.12194996
C    4.58030844   1.34240949  -0.62906981
C    4.82361841   2.82077885  -0.62836975
C    3.79505873   3.49059868  -0.09564997
C    2.69962907   2.56685901   0.34356987
H    0.87280965  -1.00506961   0.75656974
H    0.34424987  -0.04089998  -0.63507974
H    0.70056975   0.74509972   0.92009962
H    2.88219881  -0.80837971  -0.62623978
H    4.68495846   0.93571967  -1.63905931
H    5.28736782   0.84751970   0.04568999
H    5.72773790   3.27535868  -1.00853956
H    3.74684858   4.56453848   0.01613999
H    2.60087895   2.59688902   1.43407941
H    1.75241923   2.85003901  -0.12505995

