%chk=mol_1504.chk
# wB97XD/Def2SVP opt pop=full gfinput

C 6 H 11 N 1

1 2
C    1.558344  -0.790227   0.223630
C    4.380253  -0.262974  -0.117295
N    5.496949  -2.190646  -1.753175
C    5.062066   2.284244  -1.179794
C    3.476491   4.135987  -1.885115
C    4.349715   6.522900  -2.877675
C    2.780411   8.370031  -3.598058
H    0.699898   0.584077   1.512858
H    1.254306  -2.669465   1.040124
H    0.534169  -0.714600  -1.575370
H    5.282030  -0.413113   1.742611
H    4.629583  -2.124619  -3.472447
H    5.109649  -3.934693  -1.037573
H    7.090668   2.599923  -1.351835
H    1.443826   3.885258  -1.733068
H    6.378752   6.813880  -3.043328
H    0.741623   8.182590  -3.478494
H    3.521883  10.134394  -4.336581

