%chk=mol_0396.chk
# wB97XD/Def2SVP opt freq pop=full gfinput

C 5 H 9 N 1

1 2
C    0.99105960  -0.01079000   0.07636997
C    2.51999903   0.00000000   0.00000000
C    2.98582911  -0.77052969  -1.25498962
N    4.43639851  -0.98652965  -1.28829944
C    3.00201893   1.36116946   0.00000000
C    3.39929867   2.48306894   0.00000000
H    0.63859975   0.51151979   0.97322965
H    0.61007977  -1.03697956   0.11663996
H    0.54175985   0.48334980  -0.79307967
H    2.89974904  -0.51972979   0.88930970
H    2.68881893  -0.23261991  -2.16407919
H    2.50177908  -1.75348926  -1.28590953
H    4.90915823  -0.08322997  -1.23299956
H    4.69540834  -1.38757944  -2.18868899
H    3.75411868   3.48804879   0.00542000

