%chk=mol_4718.chk
# wB97XD/Def2SVP opt freq pop=full gfinput

C 4 H 6 N 2 O 1

1 2
C    1.29062951   0.21198992  -0.88477969
C    2.32854915  -0.17418993  -0.13770995
N    3.58919883   0.35465986  -0.17235993
C    4.72256851   0.04488998   0.54172981
N    4.85779810  -0.86203969   1.45432937
C    5.96760750   0.86356968   0.22471991
O    5.91373777   1.73679936  -0.62984973
H    0.32507989  -0.27366990  -0.78217971
H    1.37178946   1.01379967  -1.61123943
H    2.19126916  -0.98305964   0.57509977
H    3.72159863   1.11374950  -0.84348965
H    3.96580839  -1.34357941   1.58215940
H    6.86334705   0.60212976   0.80990964

