%chk=mol_3612.chk
# wB97XD/Def2SVP opt freq pop=full gfinput

C 5 H 6 O 2

1 2
O    0.89997971   0.06337997   0.34249988
C    2.11742926  -0.00383000   0.14913996
C    2.95142889   1.24529958  -0.09504996
O    4.35012817   1.20099950   0.12871996
C    4.92730856  -0.03080999   0.06066998
C    4.29046822  -1.19929957  -0.00467000
C    2.80552888  -1.33952951   0.00835000
H    2.55396914   2.03125930   0.55818981
H    2.78382897   1.55701935  -1.13238955
H    6.00906754   0.05393998   0.09108997
H    4.87254810  -2.11658931  -0.04500998
H    2.47267914  -1.80948925  -0.92282969
H    2.50967908  -1.96715927   0.85560971

