%chk=mol_0505.chk
# wB97XD/Def2SVP opt pop=full gfinput

C 4 H 8 N 2

1 2
C    1.909266  -0.475455   0.096471
N    4.643794  -0.101214   0.056068
C    5.273016   2.247111   0.000435
N    7.712974   3.057180  -0.044560
C    8.625957   5.471929  -0.104974
C   11.053972   6.160148  -0.147229
H    1.506622  -2.500429   0.209023
H    1.028370   0.247668  -1.630985
H    1.046625   0.429365   1.746107
H    3.873863   3.799049  -0.016082
H    9.013011   1.647671  -0.030368
H    7.159662   6.914735  -0.117881
H   12.569098   4.781612  -0.136230
H   11.574894   8.143302  -0.194169

