%chk=mol_5192.chk
# wB97XD/Def2SVP opt pop=full gfinput

C 5 H 9 N 1 O 1

1 2
C    2.684885  -1.179359  -0.340321
N    5.342104  -0.647704  -0.110266
C    6.316731   1.632005  -0.875775
O    5.084478   3.322649  -1.859566
C    9.062503   1.932944  -0.336371
C   10.493215   4.221364  -1.269801
C    9.921005   3.949358   1.494509
H    2.388293  -3.201914  -0.053838
H    2.010858  -0.625084  -2.213417
H    1.663790  -0.108244   1.101143
H    6.437258  -1.826798   0.917651
H   10.126533   0.177899  -0.325260
H    9.465884   5.646218  -2.327651
H   12.426234   3.954271  -1.889896
H   11.469863   3.507388   2.758169
H    8.509342   5.201943   2.295639

