%chk=mol_0091.chk
# wB97XD/Def2SVP opt freq pop=full gfinput

C 5 H 6

1 2
C    1.01744962   0.03561999  -0.10583996
C    2.21613908   0.00919000  -0.04677998
C    3.64713860  -0.02723999   0.02968999
C    4.40939856  -0.75231975  -1.04764962
C    4.44832802   0.74682969  -0.98380965
H   -0.04653998   0.05724998  -0.15748994
H    4.05653858  -0.07946997   1.03448963
H    3.85734868  -1.21061957  -1.86076927
H    5.29853821  -1.29859948  -0.75515974
H    5.36492777   1.21826959  -0.64880979
H    3.92256856   1.30117941  -1.75334942

