%chk=mol_6806.chk
# wB97XD/Def2SVP opt freq pop=full gfinput

C 5 H 8 N 2

1 2
C    0.98415959   0.05960998   0.01410999
C    2.48095918   0.02796999  -0.00747000
C    3.20692873   1.15891945  -0.00969000
N    4.57553864   1.20178962  -0.04594998
C    5.16277790   0.05325998   0.00274000
N    4.57400846  -1.17179954   0.09574997
C    3.14428878  -1.31722951  -0.03445999
H    0.56489980  -0.95185965  -0.00195000
H    0.59618974   0.59093976  -0.86113966
H    0.62108976   0.55398983   0.92104965
H    2.71792889   2.12996936   0.00703000
H    6.26415777   0.00039000  -0.02284999
H    5.13694811  -1.99701929  -0.05807998
H    2.77594900  -1.93578935   0.79063970
H    2.91141868  -1.82692933  -0.97532964

