%chk=mol_0170.chk
# wB97XD/Def2SVP opt freq pop=full gfinput

C 4 H 9 N 1

1 2
C    1.20374954   0.29674989   0.09877996
C    2.68551898   0.06522997  -0.15912993
N    3.39138865   1.34988952  -0.17054994
C    3.99598861   1.70286942   1.11068952
C    4.83829784   1.20839953  -0.03719999
H    0.66343975  -0.65485972   0.07005997
H    0.76631969   0.95390964  -0.66118973
H    1.03674960   0.74998969   1.08208954
H    2.80294895  -0.40946987  -1.13980961
H    3.07511902  -0.64012980   0.58604974
H    3.83849859   1.05048966   1.96067929
H    4.02139854   2.76108885   1.34116960
H    5.43292761   1.93245924  -0.58084977
H    5.26057816   0.21240991   0.01902999

