%chk=mol_3791.chk
# wB97XD/Def2SVP opt freq pop=full gfinput

C 5 H 8 O 2

1 2
O    0.95492959   0.11882996  -0.48591983
C    2.06310916   0.07132997   0.30266988
O    2.23536921  -0.86628968   1.07473969
C    3.01710868   1.27552950   0.10376997
C    2.42703915   2.70732903   0.24022990
C    3.76284862   3.12948871   0.87810969
C    3.94977856   1.65713942   1.28742957
H    0.93407965   0.90134966  -1.06814969
H    3.58632874   1.15964949  -0.83085966
H    1.56976938   2.77786899   0.92005962
H    2.17718911   3.20788884  -0.69913971
H    4.50519848   3.48345876   0.15386994
H    3.69302845   3.84719872   1.69888937
H    4.97351837   1.27885950   1.22455955
H    3.54359865   1.42043936   2.27792907

