%chk=mol_6969.chk
# wB97XD/Def2SVP opt freq pop=full gfinput

C 5 H 8 N 2

1 2
C    2.30457926  -0.54976976  -1.40120947
C    2.46991897   0.00843000   0.00385000
C    2.98111892   1.40519953   0.00247000
C    2.25832915   2.57993913  -0.01335000
N    3.17104864   3.59357858  -0.00714000
N    4.44281816   3.16604877   0.01292999
C    4.32772827   1.83615935   0.01929999
H    1.92815936  -1.57676935  -1.35998952
H    3.25898862  -0.55840975  -1.93866932
H    1.59665942   0.04908998  -1.98433924
H    3.15675879  -0.63290977   0.56908977
H    1.50518942  -0.03015999   0.52397978
H    1.19663954   2.77870893  -0.02901999
H    2.99996901   4.59395790  -0.01522999
H    5.22669792   1.23310959   0.03511998

