%chk=mol_1446.chk
# wB97XD/Def2SVP opt freq pop=full gfinput

C 5 H 10 N 2

1 2
C    0.99120963  -0.07803997   0.09555996
C    2.52742910  -0.01107000   0.06991997
C    2.98446894  -0.82977968  -1.08974957
N    3.34630871  -1.49094951  -1.97418916
N    3.03521872   1.39185953   0.02592999
C    2.54017901   2.20050931   1.14393961
C    4.50526810   1.42410946   0.03148999
H    0.58123976   0.32417989   1.02727962
H    0.64300978  -1.11539960   0.01957999
H    0.55297977   0.47583982  -0.74308968
H    2.89573884  -0.49479982   0.98511958
H    1.45903945   2.35514927   1.07542968
H    2.98022866   3.20455885   1.12092948
H    2.77307892   1.74831927   2.11459923
H    4.92169809   0.93445963  -0.85474968
H    4.92281818   0.94503963   0.92457968
H    4.86704826   2.45843911  -0.00300000

