%chk=mol_2974.chk
# wB97XD/Def2SVP opt freq pop=full gfinput

C 5 H 6 O 2

1 2
C    0.59990972   0.62239981   0.02249999
C    1.93719935   0.02881999  -0.27647990
C    3.09301877   0.51562983   0.20043992
C    4.38519859  -0.13190995  -0.14295995
O    4.49199820  -1.12457967  -0.84924966
C    5.64510822   0.48473981   0.42368984
O    5.61956787   1.47738945   1.13247967
H   -0.04193998  -0.12566996   0.49802980
H    0.12026996   0.94762969  -0.90583962
H    0.67063969   1.48587942   0.69175971
H    1.94051921  -0.84875965  -0.92174965
H    3.12851882   1.38801956   0.84396964
H    6.56919765  -0.04218999   0.13689995

