%chk=mol_2675.chk
# wB97XD/Def2SVP opt freq pop=full gfinput

C 6 H 12 O 1

1 2
C    2.13921928  -0.51363981  -1.42750943
C    2.46431899   0.00373000  -0.03332999
C    3.28155875   1.29593956  -0.08741997
O    4.54612827   1.03199959  -0.73877972
C    2.51462913   2.55239916  -0.59073979
C    3.16812873   3.34927869   0.55344975
C    3.39375877   2.01572919   1.28879941
H    1.54340935  -1.42909944  -1.36078942
H    3.04958892  -0.74327970  -1.98953927
H    1.56761944   0.22314993  -2.00002933
H    3.02032876  -0.76490974   0.51673979
H    1.52489936   0.16477993   0.50938982
H    5.02578831   1.87736928  -0.73909974
H    1.42369938   2.48469901  -0.51067978
H    2.77174878   2.89653873  -1.59633946
H    4.09653854   3.85449862   0.26278991
H    2.51899910   4.06700850   1.06155968
H    4.35881805   1.92764926   1.79498935
H    2.59994888   1.76909935   2.00257921

