%chk=mol_6662.chk
# wB97XD/Def2SVP opt freq pop=full gfinput

C 4 H 2 N 2 S 1

1 2
N    0.93714964  -0.04385998  -0.00573000
C    2.09807920  -0.02335999  -0.00208000
C    3.52996874   0.04953998   0.00227000
C    4.25174856   1.22498953   0.00075000
S    5.93159771   0.86910969   0.00729000
C    5.55735779  -0.80657971   0.01155000
N    4.27879858  -1.11578953   0.00846000
H    3.89019871   2.24393916  -0.00373000
H    6.33538771  -1.55974936   0.01649999

