%chk=mol_4161.chk
# wB97XD/Def2SVP opt pop=full gfinput

C 7 H 14

1 2
C    3.542575  -1.064105  -2.549392
C    4.481826  -0.082392  -0.015099
C    6.059690   2.338593  -0.277487
C    8.532737   1.921549  -1.720161
C    4.549270   4.729550  -1.106737
C    5.943245   6.230937   0.959754
C    6.467890   3.704808   2.305844
H    2.315160  -2.704179  -2.263684
H    5.108742  -1.658405  -3.759629
H    2.461671   0.377737  -3.562474
H    5.597331  -1.557304   0.922054
H    2.833115   0.267188   1.194023
H    9.726685   3.613062  -1.713245
H    8.175258   1.442239  -3.700310
H    9.630252   0.384616  -0.871655
H    2.505607   4.610176  -0.780419
H    4.865176   5.385247  -3.041287
H    7.649120   7.193772   0.288656
H    4.789757   7.581922   2.013824
H    8.344879   3.527193   3.153745
H    5.056113   3.256300   3.756435

