%chk=mol_0676.chk
# wB97XD/Def2SVP opt pop=full gfinput

C 5 H 6 O 1

1 2
C    1.889726   0.000000   0.000000
C    4.618491   0.000000   0.000000
C    6.867567   0.000000   0.000000
C    9.569308  -0.032862   0.037095
C   10.981614  -1.408866  -2.009610
O   10.695774   1.283710  -2.047405
H    1.145061   1.929127   0.021996
H    1.145023  -0.983678   1.659614
H    1.145174  -0.945487  -1.681762
H   10.476888   0.156847   1.862873
H    9.927260  -2.489809  -3.390395
H   12.832998  -2.157651  -1.570646

