%chk=mol_4985.chk
# wB97XD/Def2SVP opt freq pop=full gfinput

C 4 H 6 N 2 O 1

1 2
C    0.98136967   0.02795999  -0.00850000
N    2.42003894   0.01902999   0.00068000
C    3.23568869   1.11102951   0.00533000
C    4.47671843   0.64251971   0.00864000
O    4.55599833  -0.75479972   0.00586000
C    3.21224880  -1.10854959  -0.00000000
N    2.88683891  -2.35020900  -0.00518000
H    0.58397979   1.04876959  -0.00003000
H    0.58892983  -0.49115980   0.87203968
H    0.60057974  -0.47234982  -0.90486968
H    2.87484884   2.12808919   0.00586000
H    5.41977787   1.15681958   0.01272000
H    1.87135935  -2.43032908  -0.00902000

