%chk=mol_5234.chk
# wB97XD/Def2SVP opt freq pop=full gfinput

C 4 H 10 N 2 O 1

1 2
C    2.43070912  -1.20639956  -1.12752962
N    3.49962878  -0.51479983  -0.41460985
N    3.44421887   0.83435971  -0.46099982
C    4.53821802   1.40592945  -0.06826998
C    4.66317797   2.90745902  -0.00900000
C    3.59699845   3.62745881  -0.81819969
O    2.31416917   3.44741869  -0.22719993
H    2.57391882  -2.28829908  -1.05202961
H    2.43934917  -0.93858963  -2.18864918
H    1.45205939  -0.95607960  -0.70620972
H    3.50473857  -0.84651965   0.55269974
H    5.41306782   0.82742965   0.28226990
H    5.65771818   3.16716886  -0.38667986
H    4.61481810   3.19262886   1.04775953
H    3.55874872   3.27260876  -1.85315931
H    3.80304837   4.70195818  -0.83455968
H    2.14141917   2.48326921  -0.27197990

