%chk=mol_3325.chk
# wB97XD/Def2SVP opt pop=full gfinput

C 6 H 10 O 1

1 2
C    3.848465  -0.503159  -2.861499
O    4.052744   0.766567  -0.504784
C    6.232336   2.336552  -0.352812
C    6.764331   2.976451   2.422497
C    5.541886   5.553357   2.900635
C    5.330029   6.643880   0.309726
C    5.686450   4.878914  -1.464103
H    2.137734  -1.661844  -2.825745
H    5.474329  -1.746485  -3.156466
H    3.691542   0.845652  -4.419994
H    7.882615   1.420639  -1.206137
H    8.811604   3.141670   2.716292
H    6.049183   1.547157   3.736499
H    6.723079   6.719167   4.133625
H    3.666541   5.360246   3.754073
H    4.848867   8.592452  -0.063570
H    5.542227   5.217250  -3.472183

