%chk=mol_5136.chk
# wB97XD/Def2SVP opt pop=full gfinput

C 5 H 9 N 1 O 1

1 2
C    2.327255   0.216657   1.751247
N    5.059855   0.213974   1.397793
C    5.856148   2.409628  -0.146303
C    8.760883   2.472593  -0.492538
O    9.932684   2.262191   1.929278
C    9.658617   0.401283  -2.119536
C   10.398559  -1.292932  -3.435995
H    1.777476  -1.434491   2.868529
H    1.327514   0.122662  -0.057712
H    1.709919   1.900668   2.781771
H    5.564828  -1.403934   0.467972
H    5.294824   4.135665   0.855158
H    4.915253   2.385420  -1.992697
H    9.318353   4.292211  -1.305309
H    8.836341   1.101937   2.863219
H   11.077121  -2.797173  -4.590863

