%chk=mol_6185.chk
# wB97XD/Def2SVP opt pop=full gfinput

C 5 H 11 N 1 O 1

1 2
O    7.557393   2.846929   4.526291
C    6.377316   5.008436   3.460353
C    5.823664   4.560987   0.671873
C    8.164430   3.966233  -0.922715
C   10.086866   6.046556  -0.903384
C   11.270648   6.927660  -3.343417
N    9.457494   8.506697  -1.988767
H    7.732665   3.166841   6.327993
H    7.609908   6.644768   3.736253
H    4.607908   5.352592   4.475571
H    4.848395   6.219486  -0.098379
H    4.524420   2.954133   0.500343
H    7.542861   3.578650  -2.861669
H    9.060651   2.224075  -0.246987
H   11.241622   6.049297   0.789679
H   10.610491   6.139078  -5.112295
H   13.221148   7.541802  -3.323575
H   10.362313   9.926769  -1.043375

