%chk=mol_0800.chk
# wB97XD/Def2SVP opt pop=full gfinput

C 4 H 8 O 2

1 2
C    4.950157  -0.318589   0.942350
C    7.441534  -1.690549   1.304761
O    8.785129  -1.830105  -1.046663
C   10.263499   0.198232  -1.609385
C   11.563007  -0.217130  -4.091068
O   10.522618   2.085218  -0.304189
H    3.862959  -0.295667   2.700400
H    3.821196  -1.237638  -0.528783
H    5.258333   1.633952   0.331685
H    7.080898  -3.635493   1.911175
H    8.591791  -0.798069   2.777104
H   10.161190  -0.552405  -5.571026
H   12.860815  -1.816726  -3.941440
H   12.645008   1.472701  -4.588406

