%chk=mol_6836.chk
# wB97XD/Def2SVP opt freq pop=full gfinput

C 6 H 11 N 1

1 2
C    1.00336969   0.00302000   0.01926999
C    2.52138901  -0.00869000   0.06658997
N    3.04826880  -1.06532955   0.94252962
C    3.89125848  -0.27159992   1.86938930
C    4.58491802   0.78880972   0.95195961
C    3.09998870   1.21758950   0.75332975
C    2.97183895   0.92304963   2.28027916
H    0.62525976  -0.90406966  -0.46396983
H    0.64706975   0.86704969  -0.55150980
H    0.55040979   0.06316998   1.01383960
H    2.92026877  -0.11055996  -0.95047963
H    3.57529855  -1.73637938   0.38440987
H    4.46367836  -0.80212975   2.62791896
H    5.12228823   0.41423982   0.07431997
H    5.22800779   1.51453936   1.46475947
H    2.89136887   2.21874928   0.38038984
H    3.42627883   1.66593945   2.94733882
H    1.98158932   0.67621976   2.67346883

