%chk=mol_4656.chk
# wB97XD/Def2SVP opt pop=full gfinput

C 5 H 11 N 1 O 1

1 2
C    5.134726  -1.742630  -0.948132
C    4.285143   0.847788  -0.038097
N    6.399482   2.630310  -0.233419
C    6.103418   4.500024  -2.256635
C    5.673033   5.213395   0.475474
C    7.524323   6.805773   1.906167
O   10.056178   6.252688   1.175429
H    3.580389  -3.097601  -0.785937
H    6.713781  -2.452241   0.184966
H    5.728837  -1.685957  -2.930323
H    3.706093   0.693227   1.948383
H    2.612603   1.432771  -1.113238
H    4.485360   4.367290  -3.502192
H    7.831649   5.109139  -3.172945
H    3.749141   5.552790   1.087065
H    7.351431   6.442360   3.936413
H    7.169394   8.814458   1.570722
H   10.072505   4.424983   0.891119

