%chk=mol_2338.chk
# wB97XD/Def2SVP opt freq pop=full gfinput

C 6 H 10 O 1

1 2
C    1.00496960   0.02529999   0.05345998
C    2.52246904  -0.00941000  -0.10576996
C    3.00824881  -1.25520945  -0.86226964
C    3.31689882  -0.67969972  -2.19437909
C    3.65112853  -1.51389933  -3.37200856
C    3.26681876   0.64357978  -2.10156918
O    2.92739892   1.15515947  -0.86682969
H    0.69960976   0.94395965   0.56547976
H    0.64840978  -0.83273971   0.63020974
H    0.50319982   0.02731999  -0.91964966
H    2.99059892   0.04622998   0.88290966
H    2.25363922  -2.04715919  -0.89618969
H    3.91898870  -1.65765941  -0.40603986
H    3.84960866  -0.89802969  -4.25567818
H    2.82031894  -2.18472934  -3.60998845
H    4.54074860  -2.11922908  -3.17368889
H    3.47459865   1.38544953  -2.85551882

