%chk=mol_5942.chk
# wB97XD/Def2SVP opt freq pop=full gfinput

C 4 H 6 N 2 O 1

1 2
O    1.07390964  -0.00043000   0.83347970
C    2.42310905  -0.01161000   0.34883985
C    2.67230892   0.74724972  -0.92629969
N    4.03417873   1.15370965  -1.30919957
N    4.69424820   0.00020000  -1.68875945
C    3.97574854  -1.05339956  -1.45459950
C    2.63641906  -0.74693972  -0.94134963
H    0.89987963   0.81911969   1.33534956
H    3.22474885  -0.04873998   1.08137965
H    1.84738934   1.29684949  -1.36372948
H    4.06346846   1.83909941  -2.06413913
H    4.30020809  -2.08386922  -1.64682937
H    1.79686928  -1.23321962  -1.41823947

