%chk=mol_1308.chk
# wB97XD/Def2SVP opt freq pop=full gfinput

C 5 H 10 N 2

1 2
C    2.58643913  -1.14460957   1.75051939
C    2.79014897  -0.81949973   0.29681990
C    2.58137918  -1.73373938  -0.66690975
C    3.21774864   0.59132981  -0.01169000
N    4.64670849   0.66683972   0.17897993
C    5.30954790   1.84382927   0.26106989
N    6.57730770   1.98966920   0.12844996
H    1.79615927  -0.51441979   2.17194915
H    3.50761867  -0.97268963   2.31636930
H    2.29430914  -2.18944907   1.90120935
H    2.26688910  -2.74627900  -0.43114984
H    2.72505903  -1.49691939  -1.71691930
H    2.68985915   1.29652953   0.64098978
H    2.97132874   0.85936970  -1.04566956
H    5.16294813  -0.13220996  -0.16715993
H    4.66769838   2.71809888   0.46470982
H    7.01184702   1.07987964  -0.03700998

