%chk=mol_0071.chk
# wB97XD/Def2SVP opt pop=full gfinput

C 4 H 8 O 1

1 2
C    4.792931  -1.753175  -1.626147
O    3.810274   0.593298  -0.769459
C    5.755312   2.315727   0.037492
C    6.621411   4.207985  -1.893052
C    4.939461   5.028183   0.235989
H    3.215993  -2.941604  -2.234904
H    5.795847  -2.712040  -0.092672
H    6.063508  -1.459417  -3.231281
H    7.112041   1.663337   1.432771
H    5.808338   4.110967  -3.770344
H    8.582494   4.789227  -1.849796
H    5.755520   6.163701   1.731877
H    2.985975   5.471985  -0.192280

