%chk=mol_4154.chk
# wB97XD/Def2SVP opt pop=full gfinput

C 4 H 6 N 2 O 1

1 2
C    2.229310   0.062323   0.012019
C    5.011289   0.084320  -0.000907
N    6.577381   2.014977   0.002135
N    8.982189   1.008830  -0.014135
C    8.707178  -1.461684  -0.025700
C   10.644865  -3.457424  -0.045505
O    6.227479  -2.199774  -0.018500
H    1.487857  -1.867560  -0.004762
H    1.498269   1.049592  -1.650449
H    1.514256   1.014462   1.701717
H    9.791919  -5.340895  -0.018992
H   11.871468  -3.281056   1.609329
H   11.815078  -3.302107  -1.742724

