%chk=mol_2798.chk
# wB97XD/Def2SVP opt pop=full gfinput

C 7 H 10

1 2
C    2.012388   0.117239  -0.009694
C    4.842707  -0.262313   0.083224
C    5.777743  -2.857908   0.063400
C    4.368801  -4.961929  -0.030595
C    6.347741   1.796034   0.183436
C    9.078377   1.897512   0.277223
C   10.362823   4.073286   0.415381
H    1.485438   2.119309   0.007918
H    1.102239  -0.761276   1.628396
H    1.220744  -0.699350  -1.738926
H    7.812733  -3.132656   0.135323
H    2.322681  -4.939215  -0.105522
H    5.272203  -6.803997  -0.033032
H    5.435570   3.645697   0.196513
H   10.147074   0.148910   0.230943
H    9.428562   5.898421   0.470391
H   12.413290   4.066237   0.480349

