%chk=mol_1889.chk
# wB97XD/Def2SVP opt freq pop=full gfinput

C 5 H 10 N 2

1 2
N    1.08765960  -0.00744000  -0.00424000
C    2.55078888   0.00258000   0.03660998
C    3.14307880   1.03236961  -0.96539968
C    2.75405908   0.04463998  -2.10541916
C    3.18096900  -0.98858958  -1.00861955
N    4.63901854  -0.72468972  -0.87675965
C    4.63326836   0.74954969  -0.82882971
H    0.65960974   0.74153972   0.53818977
H    0.67634970  -0.87434965   0.33755988
H    2.96095896  -0.01478999   1.05129957
H    2.77867889   2.05715919  -0.98742962
H    3.35730886   0.07657997  -3.01958895
H    1.70242929   0.03250999  -2.40880895
H    2.85328889  -2.02493930  -1.07145965
H    5.04623795  -1.09129965  -0.01781999
H    5.21235800   1.16949952  -1.65772939
H    5.03715849   1.12354958   0.11754996

