%chk=mol_3497.chk
# wB97XD/Def2SVP opt freq pop=full gfinput

C 6 H 8 O 1

1 2
O    0.96258962  -0.30766988  -0.22210991
C    2.25036907   0.24710992   0.12103996
C    3.53809857  -0.45274985  -0.51823980
C    4.20672846   0.94529963  -0.16223994
C    2.83207893   1.40842950  -0.81449968
C    2.86480880   0.84084970  -2.19694924
C    3.33555889  -0.39963984  -1.99979925
H    0.34620988   0.44014984  -0.15901993
H    2.29437900   0.43955982   1.20042956
H    3.93924856  -1.36222947  -0.07555997
H    4.35475826   1.17056954   0.90024966
H    5.12215805   1.20641959  -0.70537972
H    2.49867892   2.43533897  -0.67621976
H    2.56463885   1.31232953  -3.11848879
H    3.50838852  -1.18331957  -2.71975899

