%chk=mol_5113.chk
# wB97XD/Def2SVP opt freq pop=full gfinput

C 4 H 9 N 1 O 2

1 2
C    1.74177933  -0.93430966   0.15162994
N    3.10741878  -0.76840967  -0.35275987
C    3.57188845   0.61241978  -0.11344995
C    5.04427814   0.73307973  -0.48993981
C    5.95510769  -0.02732999   0.44461983
O    5.50432777  -1.25619948   0.78236973
O    7.04695749   0.39139986   0.80591971
H    1.41198945  -1.96121919  -0.02935999
H    1.04466963  -0.25911990  -0.35618988
H    1.69507945  -0.75658971   1.23031950
H    3.07980871  -0.93079960  -1.36553943
H    3.44582868   0.87371969   0.94454968
H    2.97962904   1.31258953  -0.71354973
H    5.32887793   1.79069936  -0.43678984
H    5.23002815   0.38871983  -1.51350939
H    4.59727812  -1.41890955   0.41586983

