%chk=mol_3990.chk
# wB97XD/Def2SVP opt pop=full gfinput

C 5 H 11 N 1 O 1

1 2
C    1.764588  -0.090726  -0.016138
C    4.629905   0.048490   0.066518
C    6.029606   2.064091   1.675809
N    4.565012   2.776971   3.909843
C    7.950928   0.004101   2.425728
C    6.006003  -2.028829   1.628963
O    6.964113  -4.155356   0.227844
H    1.157268  -1.696823  -1.168985
H    0.979199   1.626449  -0.858692
H    0.939175  -0.325203   1.864574
H    5.326344   0.095734  -1.895754
H    6.806812   3.669168   0.632794
H    3.866304   1.326512   4.966616
H    3.069766   3.930990   3.529347
H    9.658465   0.017008   1.250035
H    8.543830  -0.054934   4.406558
H    4.886926  -2.709848   3.236062
H    7.999872  -3.444082  -1.112293

