%chk=mol_5315.chk
# wB97XD/Def2SVP opt freq pop=full gfinput

C 6 H 11 N 1

1 2
C    0.75640970   0.02102999   0.08391996
C    2.24349928   0.02232999   0.17854993
C    3.11722875  -0.84494972  -0.69958973
C    2.68220878  -1.44655943  -1.99556923
N    2.91259885  -0.37191984  -2.97769880
C    2.70233893   0.91305965  -2.28644919
C    3.12917900   0.63716972  -0.88197964
H    0.35835987   0.95962965   0.48305982
H    0.34727985  -0.79912972   0.68272972
H    0.38202983  -0.09239996  -0.93659967
H    2.55754900   0.14623994   1.21053958
H    3.98815846  -1.32126939  -0.27049991
H    3.27681875  -2.32879901  -2.25264931
H    1.62785935  -1.73879933  -1.98357916
H    3.89714861  -0.41263983  -3.24052882
H    3.31173873   1.69602931  -2.74873900
H    1.65330935   1.21760952  -2.34869909
H    4.00822878   1.18952954  -0.57922977

