%chk=mol_6397.chk
# wB97XD/Def2SVP opt pop=full gfinput

C 4 H 8 N 2 O 1

1 2
O    1.721824   1.531415  -0.846843
N    3.995505   1.629057  -2.178949
C    4.369538  -0.449906  -3.691334
N    2.678838  -2.034498  -4.462739
C    6.101812   2.485311  -0.592372
C    8.045282   4.304607  -1.591149
C    6.211794   5.148654   0.401246
H    1.014462   3.199420  -1.174635
H    6.353410  -0.692396  -4.285596
H    1.007111  -1.462591  -3.654069
H    6.755317   1.012666   0.685007
H    7.803208   5.043074  -3.485638
H    9.996840   4.014912  -1.043809
H    6.917512   5.424024   2.304805
H    4.739924   6.459934  -0.147474

