%chk=mol_2878.chk
# wB97XD/Def2SVP opt freq pop=full gfinput

C 6 H 10 O 1

1 2
C    1.00169957  -0.05400998   0.00292000
C    2.51999903   0.00000000   0.00000000
C    3.00201893   1.36116946   0.00000000
C    3.39929867   2.48306894   0.00000000
C    3.88131857   3.84423852   0.00000000
O    2.78030896   4.73653841  -0.16445994
C    3.20223880   6.09239769  -0.17098993
H    0.65737975  -1.09364963   0.00284000
H    0.58498979   0.44163984  -0.88146967
H    0.58843976   0.44034985   0.88964969
H    2.89566898  -0.53282982  -0.88075966
H    2.89909887  -0.53405982   0.87853968
H    4.59395790   3.99436855  -0.81888968
H    4.38919830   4.06684828   0.94523966
H    2.32117915   6.72687721  -0.29945990
H    3.88908863   6.27688742  -1.00267971
H    3.68196845   6.34989738   0.77824974

