%chk=mol_4736.chk
# wB97XD/Def2SVP opt freq pop=full gfinput

C 5 H 11 N 1 O 1

1 2
C    0.92292964  -0.08120997  -0.03543998
C    2.44785905  -0.02750999  -0.05380998
N    2.98769879  -0.80765969  -1.18962955
C    3.02031898   1.42323935  -0.06176997
O    4.44774818   1.32422960  -0.05573998
C    2.57638907   2.27761912  -1.22823954
C    3.36606884   2.83778906  -2.15553927
H    0.52751982   0.50018984   0.80372971
H    0.57374984  -1.11353958   0.08401997
H    0.48396981   0.30940989  -0.95909965
H    2.81986904  -0.51986980   0.85328972
H    2.68643904  -0.36975986  -2.06319928
H    2.56804895  -1.73780930  -1.18762946
H    2.72846913   1.93091929   0.86491966
H    4.63143826   0.53933978  -0.61148977
H    1.50679946   2.46969914  -1.29253948
H    4.44496822   2.71195889  -2.13520932
H    2.95080900   3.45221877  -2.94784880

