%chk=mol_2783.chk
# wB97XD/Def2SVP opt freq pop=full gfinput

C 6 H 8 O 1

1 2
C    1.30398953   0.14460994   0.26983988
C    2.79037905   0.12196995  -0.00914000
C    3.47950888  -1.15886950   0.10477996
C    2.92097878  -2.32878923   0.44669983
C    3.39242887   1.28047943  -0.34350988
C    4.82150841   1.49244940  -0.66035974
O    5.24953794   2.61111903  -0.92447966
H    0.87361968   1.14501953   0.14685994
H    1.09765959  -0.16862994   1.29913950
H    0.76970971  -0.51904982  -0.41888982
H    4.54613829  -1.18712950  -0.10058997
H    1.86773932  -2.44221926   0.67944974
H    3.52832866  -3.22830868   0.50350982
H    2.81731892   2.20138907  -0.40400985
H    5.47915792   0.61276972  -0.65168977

