%chk=mol_2964.chk
# wB97XD/Def2SVP opt freq pop=full gfinput

C 5 H 6 O 2

1 2
C    0.66408974  -1.15829957  -1.43106949
C    0.75932974  -0.01331999  -0.74289972
C    1.97529924   0.74840975  -0.53255981
C    1.95180929   1.93370938   0.09566996
O    3.13390875   0.17199993  -1.10187960
C    4.36898804   0.35566989  -0.55470979
O    4.67488813   0.94028968   0.47311983
H   -0.29365990  -1.65874934  -1.53453946
H    1.51912940  -1.62363935  -1.90988922
H   -0.14909995   0.38930985  -0.29747990
H    1.03333962   2.34857893   0.49698982
H    2.84440899   2.53534913   0.22626992
H    5.10126829  -0.15140994  -1.20207953

