%chk=mol_6211.chk
# wB97XD/Def2SVP opt freq pop=full gfinput

C 5 H 7 N 1 O 1

1 2
O    2.87208891  -1.21663952  -0.66086978
C    2.33042908  -0.20836993   0.18487993
C    2.92094874   1.15365958  -0.18077992
C    4.39073849   1.23865962   0.13657995
C    4.93360806   2.14768934   0.96028966
C    6.33044767   2.19597912   1.22366965
N    7.46714735   2.24454904   1.44714940
H    2.48367906  -2.06378937  -0.38172984
H    2.54284906  -0.46811983   1.22735953
H    1.24541950  -0.19339992   0.03974998
H    2.36844921   1.93741918   0.35034987
H    2.79801893   1.33054960  -1.25586951
H    5.02530813   0.50446981  -0.36151984
H    4.31860828   2.88905907   1.45810950

