%chk=mol_4261.chk
# wB97XD/Def2SVP opt freq pop=full gfinput

C 5 H 11 N 1 O 1

1 2
C    0.58526981   0.55612975   0.35886988
C    1.88795924   0.16403994  -0.32262987
C    3.06684875   1.01828957   0.10547996
C    3.67513871   0.68214977   1.45145953
O    2.94970870   1.33021951   2.49122906
C    3.97552848   1.54989946  -0.98768967
N    3.05407882   2.44096899  -0.29526991
H   -0.23134992  -0.08091997   0.00505000
H    0.32209986   1.59570944   0.13944994
H    0.65104973   0.44553983   1.44460952
H    1.74216938   0.22863992  -1.40821946
H    2.10664916  -0.88930970  -0.10830996
H    4.71496820   1.02065969   1.51622939
H    3.66609859  -0.39645985   1.63660932
H    2.43773890   2.04731917   2.07569909
H    3.73642874   1.33954942  -2.02357936
H    5.03100777   1.69131947  -0.78743970
H    3.56956863   3.02718878   0.36578986

