%chk=mol_6147.chk
# wB97XD/Def2SVP opt freq pop=full gfinput

C 6 H 13 N 1

1 2
C    0.94693965  -0.02074999   0.22819991
C    2.44388914  -0.00747000  -0.07769997
C    2.69930887   0.01803999  -1.58421946
C    3.22890878   1.07158959   0.72196972
C    4.12921858  -0.02207999   1.31953943
N    5.42736769   0.00089000   0.64687979
C    3.24168897  -1.10411954   0.68330973
H    0.75572973  -0.03920998   1.30674958
H    0.46732983  -0.90280968  -0.20939992
H    0.45743984   0.86943966  -0.18090993
H    3.76663852   0.02351999  -1.82150936
H    2.25593925   0.91070962  -2.03825927
H    2.25923920  -0.86085969  -2.06738925
H    2.63049889   1.58635950   1.48360944
H    3.72095847   1.84457922   0.12081996
H    4.18744850  -0.03895999   2.41111898
H    5.39046812   0.08662996  -0.36757988
H    6.00054789  -0.82006967   0.83764970
H    3.74354839  -1.84914935   0.05582998
H    2.64984894  -1.65242934   1.42639947

