%chk=mol_4681.chk
# wB97XD/Def2SVP opt pop=full gfinput

C 5 H 13 N 1 O 1

1 2
C    2.561807  -0.879800   0.675237
C    5.340442  -0.287635   1.222237
N    6.908366  -2.263363   0.040875
C    6.161716   2.373534   0.286671
C    4.521812   4.471697   1.425723
C    8.949819   2.929756   0.913418
O   10.606636   1.303628  -0.444369
H    1.305650   0.353303   1.758409
H    2.096406  -2.824593   1.215377
H    2.121463  -0.653241  -1.333977
H    5.639434  -0.397693   3.270908
H    6.482894  -2.358265  -1.844089
H    6.394947  -3.984166   0.754398
H    5.944965   2.432550  -1.776721
H    4.538990   4.396353   3.494519
H    2.560428   4.330345   0.785975
H    5.207178   6.338633   0.849375
H    9.324533   2.698321   2.937428
H    9.447459   4.870712   0.395576
H    9.883192  -0.398487  -0.255453

