%chk=mol_7095.chk
# wB97XD/Def2SVP opt freq pop=full gfinput

C 6 H 13 N 1

1 2
C    0.87028968   0.94192964  -1.01465964
C    2.35986900   0.82749969  -1.07097960
C    3.17520881   1.22106957  -0.07720996
C    4.68565845   1.15145957  -0.03171999
C    5.11013794   0.25470990   1.14112949
C    5.34995842   0.64346975  -1.32193947
N    5.16527796   2.51225901   0.23627992
H    0.41702983  -0.04838998  -1.12054968
H    0.51449984   1.57295942  -1.83483922
H    0.52183980   1.37758958  -0.07292997
H    2.76308894   0.39790985  -1.98337924
H    2.71888900   1.64554942   0.81832969
H    4.70159817   0.61053979   2.09517932
H    6.20137787   0.21868992   1.24430954
H    4.75905848  -0.77424973   0.99719965
H    5.09242773   1.26838946  -2.18552923
H    5.04572773  -0.38520986  -1.54835939
H    6.44328737   0.64407974  -1.23352957
H    4.93563843   3.10359883  -0.56183976
H    6.18181753   2.50916886   0.29842988

