%chk=mol_5944.chk
# wB97XD/Def2SVP opt freq pop=full gfinput

C 5 H 9 N 1 O 1

1 2
O    0.99756962   0.01989999  -0.09587996
C    2.42312908  -0.05724998   0.04185998
C    3.12879896  -0.80244970  -1.04457963
C    3.22904873   0.70403975  -0.98558962
C    4.52042818   1.42737937  -0.62033975
C    5.86555767   1.04756963  -1.19579947
N    5.17358828   2.24014926  -1.65194941
H    0.66255975   0.87991965   0.21060993
H    2.82646894  -0.14552994   1.04625964
H    2.53056908  -1.23698950  -1.83753932
H    3.99522853  -1.39144945  -0.77127969
H    2.63856888   1.23019958  -1.73778939
H    4.53014803   1.87345934   0.37205985
H    5.91356802   0.22806992  -1.90252924
H    6.74943733   1.19384956  -0.58820981
H    5.58043814   3.08233881  -1.24271953

