%chk=mol_5973.chk
# wB97XD/Def2SVP opt freq pop=full gfinput

C 5 H 7 N 1 O 1

1 2
O    1.03624964   0.08200997  -0.01387000
C    2.44998908   0.00646000  -0.03287999
C    2.99983883   1.32844949   0.43314981
C    3.73036838   1.14829957   1.54895937
C    3.76291871  -0.24304990   2.01721931
N    4.36846828  -1.27691960   1.19360948
C    2.94529891  -1.00579965   0.98765963
H    0.70804971  -0.77974969  -0.31883988
H    2.79488897  -0.23409992  -1.04374957
H    2.82089901   2.26865911  -0.06377997
H    4.22800827   1.94658935   2.08418918
H    3.58955860  -0.44701985   3.06597877
H    4.94372797  -0.85224968   0.46446982
H    2.23401904  -1.74622941   1.31967950

