%chk=mol_2179.chk
# wB97XD/Def2SVP opt pop=full gfinput

C 6 H 10 O 1

1 2
C   -3.357476   1.218647   0.631546
O   -3.143937  -1.454560  -0.273160
C   -0.561797  -1.292270   0.637272
C    1.670839  -2.234129  -0.837394
C    3.634831  -0.182737  -0.142164
C    2.068230   2.048841   0.943351
C   -0.539479   1.532700  -0.113799
H   -4.704454   2.286493  -0.512116
H   -3.845290   1.324811   2.639550
H   -0.464740  -1.752003   2.664627
H    2.287022  -4.118337  -0.255189
H    1.321920  -2.251987  -2.878582
H    4.988518  -0.861658   1.268176
H    4.698105   0.385315  -1.824701
H    2.085029   2.025314   3.015549
H    2.826482   3.867778   0.317361
H   -0.468047   1.925612  -2.162017

