%chk=mol_5816.chk
# wB97XD/Def2SVP opt freq pop=full gfinput

C 4 H 8 N 2 O 1

1 2
N    2.02733922  -1.44903934  -0.96810961
C    2.38981915  -0.15732995  -0.72620976
N    2.24153900   0.76772970  -1.61301935
C    3.02701879   0.18823993   0.60619980
C    4.48052835  -0.15747994   0.60983974
C    5.18455791  -0.56187975   1.87687933
O    4.76828814  -1.53143942   0.90173966
H    2.50542903  -2.14140916  -0.39506984
H    1.97646928  -1.72613943  -1.93951929
H    1.78788936   0.37782985  -2.44075918
H    2.48832917  -0.34820986   1.39784944
H    2.90554881   1.26114953   0.79494971
H    5.04560852   0.33673990  -0.16911994
H    4.64355850  -0.52789980   2.81341887
H    6.24551773  -0.35950989   1.95859933

