%chk=mol_4606.chk
# wB97XD/Def2SVP opt freq pop=full gfinput

C 7 H 14

1 2
C    3.10553885  -1.09048951  -0.59564978
C    2.44124913   0.12494995   0.05083998
C    1.89419925  -0.23764990   1.43134952
C    3.42310882   1.26413953   0.15955994
C    3.65424871   2.18289900  -1.01600957
C    2.92545891   2.68940902   0.20097993
C    3.57227874   3.68019867   1.10682964
H    3.47931886  -0.84326971  -1.59491944
H    2.39460897  -1.91704929  -0.69553977
H    3.95664859  -1.44167936  -0.00216000
H    1.59529948   0.42536986  -0.58113980
H    2.69661903  -0.55249977   2.10740924
H    1.16668952  -1.05282962   1.36151946
H    1.39501941   0.62271976   1.88971925
H    4.28618860   1.00735962   0.76611972
H    3.07769871   2.02561927  -1.92088926
H    4.66702795   2.52545905  -1.19692957
H    1.85957932   2.86781907   0.11036997
H    4.65111828   3.51511884   1.19612956
H    3.13409877   3.61601877   2.10778928
H    3.41338873   4.69536781   0.72928971

