%chk=mol_1304.chk
# wB97XD/Def2SVP opt freq pop=full gfinput

C 5 H 12 N 2

1 2
C    1.13496959  -0.81059968   0.01397000
C    2.51051927  -0.24071991  -0.12293995
C    2.88155890   1.05204964   0.00417000
C    1.93222928   2.18656921   0.28348988
N    1.86458921   2.44293904   1.71907938
C    4.33021832   1.44857943  -0.13378994
N    4.57969856   2.00704932  -1.45830941
H    1.15469956  -1.64387941   0.72356975
H    0.79442972  -1.19437945  -0.95251966
H    0.39939985  -0.09033997   0.37786984
H    3.27978897  -0.98146963  -0.33891988
H    0.92874968   1.97699928  -0.10035996
H    2.26189923   3.09609866  -0.23122992
H    1.48113942   1.61678934   2.17406917
H    1.19565952   3.19290876   1.88327932
H    4.99150801   0.58746976   0.02089999
H    4.59638786   2.18392920   0.63385981
H    4.41318846   1.27874947  -2.15053916
H    5.56667805   2.24493933  -1.53039944

