%chk=mol_2682.chk
# wB97XD/Def2SVP opt pop=full gfinput

C 5 H 4 O 2

1 2
C    1.889726   0.000000   0.000000
C    4.138803   0.000000   0.000000
C    6.867567   0.000000   0.000000
O    7.797010  -2.268919  -1.238980
C    9.184088  -1.248523  -3.181600
C    9.183313   1.240662  -3.185266
O    7.797747   2.266859  -1.243137
H   -0.123834  -0.000019  -0.012340
H    7.609209   0.001474   1.935231
H   10.065740  -2.557385  -4.457940
H   10.064927   2.548466  -4.462588

