%chk=mol_6858.chk
# wB97XD/Def2SVP opt freq pop=full gfinput

C 6 H 13 N 1

1 2
C    0.96743965   0.01126000  -0.02748999
C    2.49361897   0.00017000   0.00574000
N    2.99114895   0.09140997  -1.37118948
C    3.06336880   1.12927949   0.87489969
C    4.48019791   0.67230976   1.19772959
C    4.37799835  -0.84303969   1.34006953
C    3.05424881  -1.25784945   0.68690974
H    0.54865980  -0.06754998   0.98239964
H    0.57635981  -0.82926965  -0.61228973
H    0.58508974   0.93852967  -0.46942982
H    4.00979853   0.07177997  -1.38699949
H    2.71737909   0.98493963  -1.77744925
H    2.49051905   1.22725952   1.80543923
H    3.05288887   2.10526919   0.37776986
H    5.16195822   0.92620963   0.37718984
H    4.86902809   1.14599955   2.10467911
H    5.23253775  -1.33896947   0.86892968
H    4.37447834  -1.13096952   2.39780903
H    3.19961858  -2.09002924  -0.01323999
H    2.37032914  -1.62038934   1.46319950

