%chk=mol_4002.chk
# wB97XD/Def2SVP opt pop=full gfinput

C 4 H 8 N 2 O 1

1 2
C    2.033175  -0.146397   0.258628
C    4.884470   0.004705   0.009902
C    6.031930   2.263552   1.397320
N    8.366120   1.174503   2.254254
C    8.103694  -1.358902   2.439542
N    9.465544  -2.904490   3.690824
O    6.025448  -2.180007   1.179227
H    1.318046  -1.836549  -0.698556
H    1.121382   1.516845  -0.563856
H    1.464368  -0.307969   2.242746
H    5.431243  -0.000038  -1.988880
H    4.887569   2.843168   3.022069
H    6.317789   3.889396   0.155222
H    9.330239   1.983494   3.694037
H    8.684577  -4.657835   3.420593

