%chk=mol_6394.chk
# wB97XD/Def2SVP opt freq pop=full gfinput

C 4 H 7 N 1 O 2

1 2
O    0.85221970   0.31330988   0.59306979
N    2.24594903   0.22756992   0.69634974
C    2.77740884   1.07333958  -0.12861995
C    4.26933861   1.20280945  -0.26894990
O    4.57335806   2.57961917  -0.07040997
C    5.87741804   2.95623899  -0.21918991
C    6.93974781   2.21139908  -0.54207981
H    0.55162984  -0.32283986   1.26902950
H    2.15852928   1.71195936  -0.78414965
H    4.53176832   0.89373964  -1.28638959
H    4.77091789   0.57639980   0.47630984
H    5.96388769   4.02203846  -0.03077999
H    6.88508749   1.14672947  -0.73407972
H    7.91946697   2.67384887  -0.62120980

