%chk=mol_0378.chk
# wB97XD/Def2SVP opt freq pop=full gfinput

C 4 H 10 N 2

1 2
C    0.93339962  -0.07182997  -0.06858998
C    2.45229912   0.03579999  -0.00695000
C    3.11016870  -0.75230968  -1.13296962
C    2.84992886   1.48842943  -0.12003995
N    3.49873877   2.06837940   0.83911967
N    3.77271843   3.36594868   0.57658982
H    0.47094983   0.50595981   0.73862976
H    0.61204976  -1.11347961   0.03188999
H    0.54303980   0.31660989  -1.01540959
H    2.80169892  -0.35342985   0.95759964
H    2.79250884  -0.38698986  -2.11511922
H    2.85620904  -1.81476939  -1.06482959
H    4.20005846  -0.65937978  -1.08485961
H    2.56633902   2.01774931  -1.04940963
H    4.46132803   3.70399857   1.25494945
H    2.94696903   3.94748831   0.74445975

