%chk=mol_2315.chk
# wB97XD/Def2SVP opt pop=full gfinput

C 6 H 10 O 1

1 2
C    1.871471  -0.000737   0.007823
C    4.765700  -0.015004  -0.034903
C    5.763400  -2.318108  -1.510023
C    6.362311  -1.253115  -4.057563
C    6.392036   1.273675  -4.023208
C    5.804521   2.300061  -1.462535
O    8.079184   3.171509  -0.343968
H    1.170043   1.658991   1.025365
H    1.150711  -1.683973   0.971187
H    1.072023   0.034922  -1.900743
H    5.451368  -0.075551   1.920151
H    4.373336  -3.843533  -1.630645
H    7.490893  -3.065022  -0.648176
H    6.782737  -2.401936  -5.695805
H    6.834818   2.461822  -5.624883
H    4.454708   3.863923  -1.535894
H    9.367713   1.901008  -0.664201

