%chk=mol_3040.chk
# wB97XD/Def2SVP opt pop=full gfinput

C 5 H 10 O 2

1 2
C    2.268144  -0.415834  -1.016918
C    5.062765  -0.462605  -0.335445
C    5.930603   1.979091   0.956277
O    4.529598   2.334209   3.232849
C    8.715455   1.899496   1.509268
C    9.873460   3.219054   3.753960
O    9.392222   0.546225   3.761500
H    1.739606  -2.172713  -1.973082
H    1.843012   1.159725  -2.287627
H    1.084344  -0.232474   0.668963
H    6.176702  -0.787033  -2.052526
H    5.397039  -2.078774   0.920070
H    5.540601   3.600401  -0.269910
H    5.164338   1.069925   4.414873
H    9.867224   1.645214  -0.161458
H    8.691474   4.405330   4.931259
H   11.824810   3.821839   3.628501

