%chk=mol_1043.chk
# wB97XD/Def2SVP opt pop=full gfinput

C 4 H 9 N 1 O 1

1 2
C    2.100374  -0.681700   0.496223
N    4.439590  -0.543977  -0.982280
C    4.382275  -2.463825  -2.984747
C    4.719346   2.015676  -2.057326
C    7.324673   2.333831  -3.191388
O    7.701068   3.131049  -5.340574
H    2.143497   0.682890   2.052923
H    1.893657  -2.553285   1.358108
H    0.421825  -0.304095  -0.657228
H    4.146777  -4.352210  -2.167705
H    6.168501  -2.503717  -4.028442
H    2.842318  -2.143138  -4.332311
H    4.571512   3.440813  -0.560398
H    3.279506   2.421117  -3.490853
H    8.921642   1.901953  -1.920000

