%chk=mol_7014.chk
# wB97XD/Def2SVP opt freq pop=full gfinput

C 6 H 11 N 1

1 2
C    0.97001964   1.69065928   1.26276946
C    2.45446897   1.53455937   1.22317958
C    3.16165876   1.37223947   0.09324996
C    4.63579798   1.21999955   0.06989997
C    5.48820782   2.34488916   0.69369978
C    6.34627771   1.18918955   1.24010944
N    5.15122795   0.32215986   1.13156962
H    0.70832974   2.64893913   1.72170937
H    0.52699977   0.88941967   1.86206937
H    0.52309978   1.65691936   0.26408991
H    2.96266890   1.54805946   2.18556929
H    2.65631890   1.35258961  -0.86824965
H    4.98628807   0.93273968  -0.93145967
H    5.00367785   2.94256878   1.47481942
H    5.98823786   3.01596904  -0.00975000
H    7.16992712   0.89001966   0.58132976
H    6.72804785   1.32054949   2.25575924
H    5.33196783  -0.63069975   0.82473969

