%chk=mol_5344.chk
# wB97XD/Def2SVP opt pop=full gfinput

C 5 H 7 N 1 O 1

1 2
C    2.085558  -0.350223  -0.348012
O    4.766135  -0.324617  -0.171039
C    5.725832   2.190230   0.045694
C    8.571741   2.206028   0.240524
C   10.027775   0.121472   0.220059
C    9.746243   4.628846   0.459619
N   10.668694   6.606237   0.635968
H    1.463706  -2.313384  -0.514100
H    1.460173   0.684723  -2.025427
H    1.239868   0.468747   1.351986
H    4.916576   3.074565   1.736998
H    5.145138   3.275935  -1.622084
H    9.204195  -1.752097   0.056371
H   12.073630   0.222534   0.365322

