%chk=mol_5870.chk
# wB97XD/Def2SVP opt pop=full gfinput

C 4 H 5 N 1 O 2

1 2
N    1.943035   0.102366   0.065838
C    4.504748  -0.063287  -0.014381
O    5.635862  -2.073710  -0.101611
C    5.857206   2.300987   0.000000
C    6.981744   4.248747   0.000000
C    8.346127   6.611925   0.000000
O    6.634677   8.650108  -0.358783
H    1.038102   1.776758   0.190881
H    0.939723  -1.520814   0.090027
H    9.759207   6.677253  -1.508153
H    9.322964   6.911201   1.796941
H    5.797585   8.356236  -1.966959

