%chk=mol_5740.chk
# wB97XD/Def2SVP opt freq pop=full gfinput

C 5 H 5 N 1 O 1

1 2
N    1.03153956  -0.30356991  -0.02289999
C    2.37948918  -0.02450999  -0.03529999
C    3.05351877   1.13798952   0.00000000
C    2.31503916   2.42967916   0.01491999
O    2.85858893   3.52218866   0.14373995
C    4.45951843   1.13798952   0.00000000
C    5.64967775   1.13798952   0.00000000
H    0.80644971  -1.24337959   0.30308986
H    0.43065986   0.39919984   0.39983985
H    2.95603871  -0.95050967  -0.08930997
H    1.22186959   2.36004901  -0.09828997
H    6.71479750   1.15288949  -0.00034000

