%chk=mol_3437.chk
# wB97XD/Def2SVP opt freq pop=full gfinput

C 5 H 10 O 2

1 2
C    0.90860969   1.52503943  -1.35542953
O    2.32396913   1.40234959  -1.32435954
C    2.83983898   1.63020933  -0.01627999
C    4.32651806   1.49759936  -0.09928996
C    5.19588804   2.45839906   0.25313991
C    6.67901754   2.32851911   0.15073994
O    7.14957714   3.32016873  -0.74723971
H    0.56989980   1.34110951  -2.37830925
H    0.60469973   2.53475904  -1.06339967
H    0.44540983   0.78576970  -0.69522971
H    2.44457912   0.87589967   0.67332977
H    2.54302907   2.62582898   0.33343986
H    4.69140863   0.54938984  -0.48694980
H    4.83034801   3.40990877   0.63296974
H    6.99230719   1.34600949  -0.21652992
H    7.14271736   2.49539900   1.12740946
H    6.64625740   3.20601892  -1.57237947

