%chk=mol_5633.chk
# wB97XD/Def2SVP opt freq pop=full gfinput

C 4 H 8 N 2 O 1

1 2
N    2.16003919  -0.45176983  -1.39485943
C    2.11416912   0.15785994  -0.06665997
C    3.16207886   1.25746953   0.05430998
C    2.88801885   2.59223890  -0.68105972
C    3.16555882   3.22146893   0.69418973
O    3.47703862   4.29541826   1.14526951
N    3.02198887   2.01660919   1.31376958
H    1.41809940  -1.14887965  -1.46663952
H    3.03283882  -0.96779966  -1.50746942
H    2.29216909  -0.61706978   0.68738973
H    1.10825956   0.55776978   0.10385996
H    4.19007826   0.88863969  -0.06075998
H    1.86701930   2.75673890  -1.03750968
H    3.61145854   2.85640883  -1.45472944
H    3.52127862   1.88849926   2.18362904

