%chk=mol_1309.chk
# wB97XD/Def2SVP opt pop=full gfinput

C 5 H 4 N 2

1 2
C    1.797942   0.114536  -0.011754
C    4.637161  -0.022733  -0.004479
C    5.935441  -2.211055   0.004970
C    4.760504  -4.625502   0.004649
N    3.786236  -6.585620   0.003685
C    6.022689   2.292143  -0.005688
N    7.171246   4.157549  -0.006274
H    1.135064   2.076015   0.025322
H    1.010021  -0.830818   1.652301
H    1.024912  -0.765131  -1.718233
H    7.988780  -2.214211   0.011074

