%chk=mol_5375.chk
# wB97XD/Def2SVP opt pop=full gfinput

C 5 H 11 N 1 O 1

1 2
C    5.499689  -1.753571  -1.084514
O    6.014696   0.752659  -1.903653
C    7.332062   2.162055  -0.006198
C    7.770837   4.853497  -0.972037
N    9.073444   6.376692   0.949285
C   11.741681   6.822119   0.402531
C    9.802123   8.869562   0.016516
H    4.463401  -2.727253  -2.583199
H    4.330156  -1.735052   0.620718
H    7.262879  -2.773664  -0.729491
H    9.142438   1.236882   0.394083
H    6.197225   2.202816   1.727153
H    5.928997   5.711640  -1.392898
H    8.775623   4.771709  -2.788858
H   12.581117   5.947629  -1.243685
H   12.971684   6.967175   2.031985
H    9.715441  10.388316   1.387890
H    9.288514   9.389142  -1.895376

