%chk=mol_0442.chk
# wB97XD/Def2SVP opt pop=full gfinput

C 4 H 10 N 2

1 2
C    3.606656  -0.181206  -0.830535
C    6.007421  -0.591390   0.690355
N    7.701182   1.532001   0.374544
C   10.037054   1.753080   1.464009
C   11.720308   3.859860   0.524588
N   10.897597   0.326053   3.238367
H    2.301044  -1.762113  -0.558206
H    4.026799  -0.031634  -2.850954
H    2.649320   1.559100  -0.252146
H    6.933537  -2.333623   0.060604
H    5.512010  -0.810428   2.688872
H    7.396615   2.605195  -1.185595
H   10.871140   5.678268   1.019564
H   11.902742   3.737935  -1.530924
H   13.598413   3.736064   1.377459
H    9.576225  -0.987760   3.726181

