%chk=mol_5328.chk
# wB97XD/Def2SVP opt pop=full gfinput

C 5 H 11 N 1 O 1

1 2
C    3.326655   0.460394  -3.504573
O    5.729669   0.700068  -2.324968
C    6.101510   2.724872  -0.711595
C    4.305911   4.356329   0.045958
C    8.827458   3.003304   0.163518
C    9.632369   0.752867   1.791026
N   10.509938   3.257888  -2.026108
H    3.403775  -1.167889  -4.776075
H    2.889297   2.133690  -4.640657
H    1.845601   0.103444  -2.105325
H    2.350234   4.225655  -0.539441
H    4.769158   5.914351   1.298431
H    9.037029   4.720422   1.304459
H    9.552017  -1.031620   0.742284
H    8.405747   0.569545   3.449336
H   11.572286   0.994865   2.475050
H   10.117291   1.793823  -3.220679
H   12.331842   3.011449  -1.466427

