%chk=mol_6736.chk
# wB97XD/Def2SVP opt freq pop=full gfinput

C 5 H 8 N 2

1 2
C    0.90093970  -0.09151997  -0.14710994
C    2.21862912   0.04791998   0.04204999
C    2.93143892   1.34942949   0.25924990
C    4.38770866   1.24372959  -0.19183993
N    4.97849846   0.03122999   0.37689987
N    4.38676834  -1.16926956   0.13464995
C    3.09531879  -1.15642953   0.00339000
H    0.24165991   0.77232975  -0.13313995
H    0.43853983  -1.06012952  -0.31013989
H    2.43822908   2.16228914  -0.28675991
H    2.89484906   1.59778941   1.32761943
H    4.94570827   2.12155914   0.15058994
H    4.45517826   1.21255958  -1.28544950
H    5.97661781  -0.01990999   0.16633993
H    2.58767915  -2.11968899  -0.17622994

