%chk=mol_3542.chk
# wB97XD/Def2SVP opt freq pop=full gfinput

C 5 H 8 O 2

1 2
O    0.89695966   0.03370998   0.12260995
C    2.33064914   0.03452999   0.02378999
C    3.06295896   1.03802967   0.93917966
C    4.11722851  -0.05648998   1.22863948
C    3.05842876  -1.09450960   0.78428972
C    5.43714762  -0.00066000   0.42274985
O    5.54237795  -0.01560999  -0.80423975
H    0.60608977  -0.68011975  -0.47100982
H    2.64484906   0.11582995  -1.02429962
H    2.48888898   1.34364951   1.82218921
H    3.43577886   1.93614924   0.43811983
H    4.34397840  -0.13453995   2.30102921
H    3.42675877  -1.91269922   0.15855993
H    2.48258924  -1.52172947   1.61411941
H    6.34753752   0.04965998   1.04303956

