%chk=mol_6730.chk
# wB97XD/Def2SVP opt freq pop=full gfinput

C 5 H 12 N 2

1 2
C    0.99183965   0.10494996  -0.13750996
C    2.47758913   0.05310998  -0.04030998
C    3.32729888  -0.82381970  -0.94729960
C    2.74741888  -1.69810939  -2.01513934
N    3.74750853  -1.84736931  -3.06897902
N    3.27612877   0.63325977  -1.11670959
C    4.48618841   1.30267954  -0.64896977
H    0.61130977   0.96119970   0.42879987
H    0.55506980  -0.80287969   0.28988987
H    0.63596976   0.20671992  -1.16748953
H    2.81317902   0.17972992   0.98374963
H    4.22078848  -1.26357961  -0.51418978
H    1.83376932  -1.27737963  -2.44670916
H    2.50353909  -2.68022919  -1.59846950
H    3.98138857  -0.90868968  -3.39904881
H    3.32063890  -2.32164931  -3.86193848
H    4.25522852   2.34350920  -0.39969984
H    5.23311806   1.31106949  -1.44950950
H    4.94600821   0.84175968   0.23383990

