%chk=mol_1021.chk
# wB97XD/Def2SVP opt freq pop=full gfinput

C 4 H 7 N 1 O 1

1 2
C    3.38006878  -1.31917953   0.39706987
C    2.57622910  -0.05381998   0.25185990
O    1.35047948  -0.05452998   0.35323986
C    3.26857877   1.23563957  -0.01542999
C    4.59490824   1.38110948  -0.09174997
N    5.27142811   2.54702902  -0.34508988
H    4.03650856  -1.24998951   1.26817954
H    3.95888853  -1.50562942  -0.51120979
H    2.69947886  -2.16314912   0.54560977
H    2.60075903   2.07969928  -0.15281995
H    5.27406788   0.54071981   0.03754999
H    4.72530794   3.39699864  -0.21821992
H    6.19429731   2.60370922   0.08113997

