%chk=mol_0838.chk
# wB97XD/Def2SVP opt pop=full gfinput

C 4 H 8 O 2

1 2
C    6.485483  -1.872549   2.633201
O    6.242824  -0.991218   0.105598
C    6.585545   1.661901  -0.085019
C    9.320582   2.513921   0.215485
C   11.225030   1.353176  -1.549103
O    9.934366   4.121965   1.782333
H    6.089775  -3.901680   2.651494
H    5.124691  -0.927100   3.873731
H    8.410339  -1.577468   3.329754
H    5.393014   2.647979   1.293480
H    5.959591   2.253083  -1.967545
H   11.232154  -0.698821  -1.325643
H   13.111713   2.070686  -1.102164
H   10.760044   1.858092  -3.497392

