%chk=mol_7159.chk
# wB97XD/Def2SVP opt freq pop=full gfinput

C 6 H 13 N 1

1 2
C    0.82370967  -0.18902993   0.07307997
C    2.32051897   0.09662996   0.01380999
C    2.74273896   1.55280936  -0.06047998
C    1.89030921   2.59091902  -0.11197996
C    4.24305820   1.79888940  -0.03348999
C    4.95068836   1.33696949  -1.31488955
N    6.37328768   1.67667937  -1.28540957
H    0.65183979  -1.26919949   0.12505995
H    0.31077990   0.18548992  -0.81890970
H    0.36581987   0.26432991   0.95812964
H    2.72326899  -0.43129984  -0.85822964
H    2.78462887  -0.35163987   0.90105969
H    0.81267971   2.46415901  -0.11647996
H    2.24797916   3.61664867  -0.14761993
H    4.67205811   1.28682947   0.83740968
H    4.44237804   2.86822891   0.11893995
H    4.48900843   1.80236924  -2.19328904
H    4.86064816   0.25175992  -1.42998958
H    6.47857761   2.69001913  -1.24666953
H    6.80494785   1.38071942  -2.16022921

