%chk=mol_2028.chk
# wB97XD/Def2SVP opt freq pop=full gfinput

C 6 H 11 N 1

1 2
N    1.19416952   0.33652988   0.17681994
C    2.58432913   0.03786999  -0.14598994
C    2.63177896  -0.62210977  -1.49207938
C    3.14129877  -1.83998930  -1.72428942
C    3.32729888   1.34580958  -0.09430997
C    4.06515837   1.76142931   1.15717959
C    4.83658838   1.37208951  -0.07256997
H    1.15743959   0.72756976   1.11585951
H    0.67939973  -0.54118979   0.21774992
H    2.97737885  -0.64411974   0.61872977
H    2.22792912  -0.05228998  -2.32623911
H    3.55902863  -2.44587898  -0.92651963
H    3.14882898  -2.25433922  -2.72748899
H    2.83894897   2.12165928  -0.67712975
H    4.09029865   1.08179963   2.00149918
H    4.04160833   2.80983901   1.43213952
H    5.33221769   2.15671921  -0.63331974
H    5.36973810   0.42839986  -0.06758998

