%chk=mol_4116.chk
# wB97XD/Def2SVP opt freq pop=full gfinput

C 6 H 9 N 1

1 2
C   -1.72107935   0.93493962   0.38304988
C   -1.33407950  -0.37991986  -0.20598991
N   -0.30783987  -1.28589952   0.28347987
C    0.76961970  -0.59596980  -0.43266982
C    2.02022910  -0.09931996   0.11583996
C    0.89428967   0.90493965  -0.02350999
C   -0.56178981   0.88592970  -0.59352982
H   -2.64612913   1.38545954   0.04136999
H   -1.52069950   1.10281956   1.43353939
H   -2.00645924  -0.80132973  -0.94936961
H   -0.19404992  -1.19079959   1.29238951
H    0.85397971  -0.88314962  -1.48643947
H    2.30700922  -0.42554983   1.10931969
H    2.86529899   0.01279000  -0.55464977
H    0.84366971   1.36442947   0.96696967
H   -0.72442973   1.29693949  -1.58580935

