%chk=mol_2903.chk
# wB97XD/Def2SVP opt pop=full gfinput

C 6 H 10 O 1

1 2
C    8.325283  -3.256830  -2.557140
C    7.557525  -1.827516  -0.618167
C    5.503620   0.125875  -0.802132
C    6.369530   2.742371   0.070355
O    4.263430   4.424983  -0.140218
C    4.607738   6.868795   0.613859
C    6.677045   7.974644   1.552259
H    9.798721  -4.662125  -2.308074
H    7.497904  -3.078666  -4.425096
H    8.423190  -2.101413   1.227887
H    3.897825  -0.480255   0.361656
H    4.771256   0.261614  -2.737476
H    7.925851   3.409482  -1.126163
H    7.001246   2.647582   2.042813
H    2.859156   7.904706   0.344251
H    8.444789   6.984466   1.839100
H    6.627629   9.960652   2.065508

