%chk=mol_2859.chk
# wB97XD/Def2SVP opt pop=full gfinput

C 6 H 10 O 1

1 2
C    1.705440   0.161647  -0.101346
C    4.560760  -0.164614  -0.076515
C    5.914578   2.387745   0.051722
C    8.739681   2.089621   0.058109
C   10.165139   2.159201   2.154798
C   10.040191   1.774094  -2.413445
O    8.904541   1.739965  -4.430312
H    0.774769  -1.684634  -0.146095
H    1.097685   1.227698  -1.766232
H    1.057755   1.165942   1.586841
H    5.135860  -1.204096  -1.774283
H    5.092037  -1.327155   1.555717
H    5.313041   3.393608   1.763511
H    5.335453   3.587021  -1.537179
H    9.303953   2.406831   4.001873
H   12.206800   1.965070   2.111070
H   12.113750   1.574331  -2.332187

