%chk=mol_2810.chk
# wB97XD/Def2SVP opt pop=full gfinput

C 6 H 10 O 1

1 2
C    1.787303   1.009284   0.957694
C    4.496528   1.085969  -0.035999
C    4.673803  -0.273406  -2.590777
C    7.350846  -0.626936  -3.481953
C    8.250809   0.322312  -5.648505
C    5.407735   3.795893  -0.296422
O    4.125782   5.667780   0.187593
H    1.642720   1.969624   2.786042
H    1.149124  -0.942161   1.213828
H    0.479291   1.947854  -0.346084
H    5.732295   0.166485   1.351740
H    3.571979   0.758347  -4.013703
H    3.821782  -2.156933  -2.430585
H    8.597536  -1.754290  -2.295979
H    7.078026   1.431808  -6.916605
H   10.195186  -0.009260  -6.217180
H    7.392797   4.021432  -0.896543

