%chk=mol_5479.chk
# wB97XD/Def2SVP opt freq pop=full gfinput

C 5 H 9 N 1 O 1

1 2
N    0.75917971   0.01999999   0.08880997
C    2.21427917   0.02182999   0.17825994
C    3.04409885  -0.84220970  -0.72835976
C    2.56065917  -1.41006947  -2.01929927
O    2.70577884  -0.36255988  -2.99409890
C    2.57513905   0.88771969  -2.29573917
C    3.05331874   0.63610977  -0.90620971
H    0.37015986   0.88525969   0.46364984
H    0.36072987  -0.73257971   0.65035975
H    2.59211898   0.14118995   1.19279957
H    3.93572855  -1.31984949  -0.34975988
H    3.16279864  -2.26485896  -2.34096932
H    1.51038945  -1.71679938  -1.97796929
H    3.18748879   1.63415945  -2.80994916
H    1.52896953   1.20860958  -2.32992911
H    3.95126867   1.17888951  -0.65026975

