%chk=mol_5034.chk
# wB97XD/Def2SVP opt freq pop=full gfinput

C 4 H 9 N 1 O 2

1 2
C    2.78101897  -1.05469966  -0.66444975
N    2.24668908   0.18673992  -0.11226996
C    3.31351876   1.19451952   0.09518997
C    3.56366849   2.21938920  -0.98566961
O    2.67517900   2.14597917  -2.11844921
C    2.93294907   2.63714910   0.31421989
O    3.77659869   3.37471867   1.21474957
H    1.96500921  -1.76696932  -0.81849974
H    3.50853872  -1.51131940   0.01415999
H    3.25899887  -0.88056970  -1.63361931
H    1.80435932  -0.02127999   0.78541970
H    4.17819834   0.84649968   0.65685976
H    4.58981848   2.51612902  -1.17013955
H    2.03475928   1.42317951  -1.96022928
H    1.87773931   2.88966894   0.30021989
H    3.75869870   4.32302856   0.99582964

