%chk=mol_3951.chk
# wB97XD/Def2SVP opt freq pop=full gfinput

C 5 H 9 N 1 O 1

1 2
C    0.89594966   0.08460997   0.12894996
C    2.40250897  -0.05522998   0.12368996
C    3.21387863   1.06735957   0.81390971
C    3.87451863  -0.09330996   1.57948935
O    4.90182781  -0.27910990   2.18536925
N    2.87056899  -0.94324964   1.20568943
C    3.09264898  -2.35561895   1.07663953
H    0.42091984  -0.83142966  -0.23809990
H    0.58588976   0.90476966  -0.52667981
H    0.50519979   0.28999990   1.13169956
H    2.80258918  -0.35114986  -0.85464972
H    2.65597916   1.75169945   1.45909941
H    3.88909841   1.62260938   0.15982993
H    2.20669913  -2.82201886   0.63945979
H    3.27787876  -2.77326894   2.07005930
H    3.96925855  -2.53768897   0.44829983

