%chk=mol_6355.chk
# wB97XD/Def2SVP opt pop=full gfinput

C 4 H 8 N 2 O 1

1 2
O    2.712834   0.917254   3.389091
N    5.137750   0.787902   2.335361
C    5.312833   2.469419   0.568241
C    7.707531   2.783396  -0.923698
C    8.908509   5.297224  -0.432180
C   10.221094   6.698229  -2.537581
N    7.800903   7.571641  -1.539201
H    2.757942  -0.419784   4.656115
H    3.725312   3.735970   0.087154
H    7.224423   2.557669  -2.924313
H    9.038560   1.277738  -0.421182
H    9.652325   5.463557   1.470188
H   10.170280   5.927825  -4.433127
H   11.861716   7.836864  -2.092758
H    8.048286   9.094666  -0.374638

