%chk=mol_6531.chk
# wB97XD/Def2SVP opt freq pop=full gfinput

C 5 H 10 N 2

1 2
C    0.95773965  -0.00203000   0.11088996
C    2.47128892  -0.01193000   0.01872999
C    3.12124896   1.16412950   0.77418971
C    4.44712877   0.60504979   1.29543960
N    4.10497856  -0.77231967   1.55707943
C    3.11578894  -1.19198954   0.72026974
N    2.84063888  -2.42583919   0.49053982
H    0.52702981  -0.82658970  -0.46690983
H    0.55015981   0.93470961  -0.28297988
H    0.61754978  -0.11779996   1.14598954
H    2.79583907  -0.01779999  -1.02796960
H    2.49588895   1.46925950   1.62330937
H    3.26527882   2.04063916   0.13511996
H    5.22712803   0.66359973   0.52849984
H    4.78663826   1.12043965   2.19814920
H    4.83256817  -1.45027947   1.75185943
H    2.08730912  -2.50306916  -0.19847992

