%chk=mol_5625.chk
# wB97XD/Def2SVP opt pop=full gfinput

C 5 H 11 N 1 O 1

1 2
N    3.974094  -0.552745  -2.819263
C    4.523116   0.120224  -0.203920
C    5.871587   2.659733  -0.044522
C    4.368518   4.905408  -0.996698
C    5.727722   7.089440   0.256247
O    6.704918   6.164627   2.612698
C    6.422839   3.466967   2.655594
H    3.139062  -2.288269  -2.873215
H    5.617400  -0.718342  -3.811086
H    5.700132  -1.354707   0.647609
H    2.744922   0.177464   0.855895
H    7.664144   2.572692  -1.091090
H    2.411404   4.812622  -0.319345
H    4.331366   5.075483  -3.056273
H    7.331589   7.726542  -0.883164
H    4.483167   8.702038   0.604580
H    8.150389   2.608616   3.398446
H    4.862568   3.020444   3.940570

