%chk=mol_6839.chk
# wB97XD/Def2SVP opt freq pop=full gfinput

C 6 H 13 N 1

1 2
C    0.97028965   0.05743998   0.01056000
C    2.48258924  -0.06727997   0.02860999
N    3.13329864   0.94516963   0.89837968
C    4.15802813  -0.05325998   1.27385950
C    3.16933894  -1.18340957   0.88110965
C    2.38759899  -1.74857926   2.06771922
C    3.79033852  -2.30086923   0.04729998
H    0.52437979  -0.79751968  -0.50973982
H    0.66293979   0.96501964  -0.52147979
H    0.53923976   0.09933996   1.01667964
H    2.86451888  -0.01909999  -1.00162959
H    2.55693913   1.23868954   1.68724930
H    5.06218815   0.01023000   0.65467978
H    4.46441841  -0.01864999   2.32421923
H    1.96636915  -0.95799965   2.69831896
H    3.03628898  -2.36154914   2.70346904
H    1.56049943  -2.37933922   1.72439933
H    4.37903833  -1.90522933  -0.78756970
H    3.01371884  -2.94911885  -0.37203985
H    4.45698833  -2.91953874   0.65718979

