%chk=mol_5267.chk
# wB97XD/Def2SVP opt pop=full gfinput

C 5 H 11 N 1 O 1

1 2
C    3.566027  -1.092961  -1.821715
O    3.285591   1.369579  -0.792079
C    5.666514   2.608030  -0.331571
C    6.301424   4.758028  -2.078585
C    5.441089   5.296713   0.582489
C    7.233796   6.259642   2.532857
N    7.077251   9.002126   2.566910
H    1.686807  -1.860020  -2.205877
H    4.521548  -2.325270  -0.463984
H    4.633155  -1.019451  -3.590839
H    7.215371   1.492468   0.423185
H    4.996152   5.178492  -3.600250
H    8.270122   5.048026  -2.557291
H    3.539117   6.010387   0.863794
H    9.180460   5.673978   2.138641
H    6.709057   5.512142   4.389475
H    7.605259   9.691064   0.849715
H    8.335657   9.694919   3.845725

