%chk=mol_6005.chk
# wB97XD/Def2SVP opt freq pop=full gfinput

C 5 H 9 N 1 O 1

1 2
O    1.11139965   0.04292998   0.42045984
C    2.30065894   0.01717999   0.09963996
C    3.06033897  -1.28198957  -0.00183000
C    4.00621843  -1.23469949  -1.19123960
N    4.86132812  -0.04547998  -1.17839956
C    4.05230856   1.17506957  -1.21618950
C    3.10966897   1.28386950  -0.02826999
H    2.35044909  -2.10705924  -0.12120996
H    3.60988855  -1.42888951   0.93454963
H    4.64151859  -2.12715912  -1.18672955
H    3.43769884  -1.26259947  -2.12910914
H    5.45195818  -0.04812998  -0.34560987
H    4.72128868   2.04243922  -1.23039949
H    3.48489857   1.20493960  -2.15469933
H    3.66433859   1.42937946   0.90505970
H    2.43148899   2.13212919  -0.16588993

