%chk=mol_6705.chk
# wB97XD/Def2SVP opt freq pop=full gfinput

C 3 H 5 N 1 O 2 S 1

1 2
O    0.99414968  -0.07512997   0.37222987
S    2.42051911   0.02038999   0.16082993
O    3.35452867   0.24967991   1.24043953
C    2.98253894  -1.33655941  -0.85710967
C    3.45943856  -0.63619977  -2.08866930
C    3.34531879   0.69251972  -2.14051938
N    2.70809913   1.23288953  -0.99537963
H    2.14459920  -2.00309920  -1.07013965
H    3.79394865  -1.85745919  -0.34664989
H    3.92111850  -1.19926953  -2.89046907
H    3.69256854   1.34619951  -2.93067908
H    3.11569881   2.08602929  -0.60980976

