%chk=mol_0563.chk
# wB97XD/Def2SVP opt freq pop=full gfinput

C 4 H 10 N 2

1 2
N    1.55564952  -0.36295989  -0.94825959
C    2.60178900  -0.16860995   0.04347998
C    2.96584892   1.27808952   0.09769996
C    4.20230865   1.75648940  -0.12001995
C    4.56622839   3.20339894  -0.06458998
N    5.61000776   3.39764881   0.92926967
H    1.31605959  -1.35210955  -0.98416966
H    1.93355930  -0.13406995  -1.86695921
H    3.46530867  -0.79600966  -0.20249993
H    2.23309922  -0.48228982   1.02550960
H    2.15710926   1.96357930   0.34287986
H    5.01143837   1.07140958  -0.36516985
H    3.70174861   3.83026838   0.17997992
H    4.93641806   3.51773882  -1.04603958
H    5.23159838   3.16424894   1.84641922
H    5.84628773   4.38726854   0.96898967

