%chk=mol_2534.chk
# wB97XD/Def2SVP opt freq pop=full gfinput

C 6 H 6 O 1

1 2
C    0.88567966   0.14392994   0.00232000
C    2.21352911   0.02384999  -0.00195000
O    3.07580876   1.12321961  -0.00777000
C    4.37475824   0.61815971  -0.01117000
C    4.43582821  -0.71731973  -0.00802000
C    3.05671906  -1.16002953  -0.00191000
C    2.67660880  -2.44207907   0.00284000
H    0.42698985   1.12649965   0.00142000
H    0.23111992  -0.71867973   0.00672000
H    5.15988827   1.35195947  -0.01584999
H    5.31618834  -1.33621943  -0.00964000
H    1.63030934  -2.72713900   0.00742000
H    3.40517879  -3.24611878   0.00234000

