%chk=mol_6688.chk
# wB97XD/Def2SVP opt freq pop=full gfinput

C 4 H 5 N 1 O 1 S 1

1 2
O    1.97238934  -0.41037983  -1.28229952
C    2.48864913  -0.13805994   0.01274000
C    2.96712899   1.26670945   0.00348000
C    2.25164914   2.43060923  -0.20086992
N    2.97331882   3.60644865  -0.12192995
C    4.23341846   3.32045889   0.11867996
S    4.61443853   1.65708947   0.28705990
H    1.72323930  -1.34937954  -1.29285944
H    3.28780866  -0.85347968   0.23065992
H    1.68707943  -0.26783988   0.74639970
H    1.18964958   2.47548914  -0.41224986
H    4.99181843   4.08665848   0.21067992

