%chk=mol_2846.chk
# wB97XD/Def2SVP opt pop=full gfinput

C 6 H 14 O 1

1 2
C    5.441070  -1.642134   2.563659
C    4.785958  -0.065139   0.247970
C    5.926880   2.617441   0.212594
C    4.767949   4.261049   2.305334
C    8.844391   2.679518   0.344365
C   10.126248   1.220839  -1.783864
O    9.703120   5.237659   0.214163
H    4.501366  -3.482368   2.448707
H    4.814323  -0.730171   4.309728
H    7.474226  -1.990392   2.697546
H    2.721319   0.083072   0.120980
H    5.377991  -1.094718  -1.448645
H    5.354274   3.494179  -1.581531
H    5.411609   3.672777   4.180963
H    2.701647   4.155130   2.267161
H    5.285205   6.249381   2.057061
H    9.495931   1.935363   2.161639
H    9.506324   1.915200  -3.634151
H    9.744108  -0.807008  -1.674543
H   12.177585   1.493734  -1.708029
H    9.135484   5.941639  -1.385150

