%chk=mol_3221.chk
# wB97XD/Def2SVP opt pop=full gfinput

C 6 H 10 O 1

1 2
C    1.793709   0.191656  -0.236934
C    4.651391   0.030160  -0.114026
O    5.648183   2.531043  -0.112080
C    8.341270   2.529493   0.000000
C    9.252137   5.101750   0.000000
C   10.002906   7.221815   0.000000
C   10.904646   9.833134  -0.000605
H    0.949361  -1.693894  -0.241998
H    1.194571   1.197293  -1.942449
H    1.054751   1.251074   1.378650
H    5.367654  -1.008415  -1.756236
H    5.225717  -0.954425   1.614771
H    9.092644   1.503712  -1.634575
H    8.953201   1.553298   1.720822
H    9.392525  11.135268  -0.545961
H   12.467978  10.072732  -1.334071
H   11.575612  10.381664   1.877821

