%chk=mol_1442.chk
# wB97XD/Def2SVP opt pop=full gfinput

C 5 H 10 N 2

1 2
C    2.332224  -0.248726   1.684521
C    5.143513  -0.122851   1.144966
C    5.769863   2.317503  -0.168034
N    6.622469   2.310511  -2.459101
N    7.060092   4.673425  -3.301994
C    6.583995   4.648197  -6.027281
C    9.222790   4.521774  -5.021210
H    1.860322  -2.013314   2.653761
H    1.235767  -0.155260  -0.068465
H    1.733276   1.329252   2.882928
H    5.722223  -1.723770  -0.030066
H    6.208808  -0.187574   2.916339
H    5.456301   4.078577   0.915194
H    5.934458   6.417151  -6.820230
H    5.762455   2.965132  -6.853980
H   10.242259   2.751101  -5.144402
H   10.379150   6.204613  -5.125296

