%chk=mol_4453.chk
# wB97XD/Def2SVP opt freq pop=full gfinput

C 4 H 9 N 1 O 2

1 2
C    3.05299878  -1.16575956   0.19454993
C    3.87453842  -0.38295984  -0.81642973
C    3.83597851   1.11548960  -0.52993983
C    4.65444851   1.90848935  -1.52640951
O    5.29150820   1.42042947  -2.45643902
N    4.63229847   3.26463890  -1.29320955
O    5.28126812   4.05718851  -2.26926899
H    3.09027886  -2.23542905  -0.03380999
H    2.00477910  -0.85085970   0.17667994
H    3.43841863  -1.02131963   1.20885956
H    3.49131870  -0.58020979  -1.82478929
H    4.91065788  -0.74134976  -0.79601973
H    4.22940826   1.31565952   0.47358981
H    2.80148888   1.47648954  -0.57122976
H    3.90085864   3.71819854  -0.75681973
H    5.64729786   3.37934875  -2.88028884

