%chk=mol_5331.chk
# wB97XD/Def2SVP opt freq pop=full gfinput

C 5 H 7 N 1 O 1

1 2
C    2.49795914  -0.84891969  -0.86490971
O    2.35015917   0.02828999   0.24536991
C    2.89400887   1.33854949   0.00000000
C    2.36661911   2.21370912   1.10795963
C    1.62207937   3.31498885   0.93892968
C    4.33800840   1.33854949   0.00000000
N    5.48901796   1.33854949   0.00000000
H    2.00229931  -1.79311931  -0.62194973
H    3.55374861  -1.05733955  -1.05958951
H    2.02486920  -0.42775983  -1.75789928
H    2.51143909   1.70078945  -0.96262962
H    2.60500884   1.89501929   2.12236905
H    1.33797944   3.67557859  -0.04590998
H    1.27034950   3.88216853   1.79680932

