%chk=mol_0956.chk
# wB97XD/Def2SVP opt freq pop=full gfinput

C 4 H 9 N 1 O 1

1 2
C    0.96598959   0.07211997  -0.16692993
C    2.45750928  -0.02288999   0.01973999
N    2.92372894  -0.02835999   1.42788947
C    3.25778890  -0.80573970  -0.99242961
C    3.33369875   0.69160980  -0.99411964
O    4.54046822   1.25968957  -0.45475984
H    0.68562979   0.09706996  -1.22536957
H    0.57981974   0.98166960   0.30455989
H    0.47011983  -0.79066974   0.29000992
H    3.84886861  -0.45463985   1.48681939
H    2.32201910  -0.63034976   1.99153924
H    2.73489904  -1.27972949  -1.81505930
H    4.13753843  -1.35147953  -0.67324978
H    2.85492897   1.21988952  -1.81167924
H    4.37739849   1.49923944   0.47804981

