%chk=mol_5980.chk
# wB97XD/Def2SVP opt freq pop=full gfinput

C 5 H 11 N 1 O 1

1 2
O    1.10432959   0.10793996   0.20722991
C    2.52909899   0.03670999   0.10455997
C    2.92154884  -1.33264947  -0.45242983
C    2.50141907  -1.47723949  -1.91631925
C    2.95748901  -0.28350988  -2.75345898
N    2.49102902   0.98370963  -2.18147922
C    3.02088881   1.16457951  -0.81728965
H    0.79720974   0.34844989  -0.69092971
H    2.93857908   0.16359994   1.11165965
H    2.45102906  -2.13091898   0.13349995
H    4.00849867  -1.45944941  -0.37570986
H    2.92141891  -2.40109897  -2.32961917
H    1.41016948  -1.57221949  -1.97747922
H    4.05084848  -0.27698991  -2.84172893
H    2.55553913  -0.38189986  -3.76792860
H    2.82025886   1.75339937  -2.76634908
H    4.11565828   1.20607960  -0.83353966
H    2.65232897   2.12550902  -0.44187984

