%chk=mol_2383.chk
# wB97XD/Def2SVP opt freq pop=full gfinput

C 5 H 6 O 2

1 2
C    0.86528969  -0.04255999  -0.00566000
C    2.34468913   0.00275000  -0.00285000
C    3.15075874   1.11769950  -0.00381000
O    2.92913890   2.41543889  -0.00708000
O    4.46202803   0.78817970  -0.00083000
C    4.51584864  -0.56984979   0.00203000
C    3.24568892  -1.09981966   0.00098000
H    0.43240982   0.96317965   0.00420000
H    0.49797982  -0.57728976   0.87560964
H    0.50120980  -0.55877984  -0.89925969
H    3.82728863   2.78982902  -0.00641000
H    5.50793791  -0.99969959   0.00453000
H    2.99648905  -2.15226912   0.00255000

