%chk=mol_1997.chk
# wB97XD/Def2SVP opt pop=full gfinput

C 5 H 12 N 2

1 2
N    2.679613   0.192847  -2.715196
C    3.731548   0.394632  -0.172456
C    5.964581   2.196844   0.014551
C    7.663803   1.686505   2.263155
N    6.331433   2.311778   4.587556
C    7.210949   3.302769  -2.336835
C    5.538542   4.940444  -0.740640
H    1.160708  -0.987798  -2.657975
H    3.975889  -0.669624  -3.846575
H    4.299354  -1.498798   0.441157
H    2.240611   1.036817   1.111140
H    9.401539   2.806583   2.155629
H    8.223125  -0.306740   2.291066
H    5.858680   4.179073   4.548439
H    7.533620   2.100997   6.076282
H    6.524601   2.811931  -4.203847
H    9.225416   3.680676  -2.304181
H    6.420269   6.420212   0.364075
H    3.705375   5.458946  -1.498647

