%chk=mol_5566.chk
# wB97XD/Def2SVP opt freq pop=full gfinput

C 4 H 9 N 1 O 2

1 2
N    0.95250964   0.12095996   0.07733997
C    2.40743899  -0.00759000  -0.06317998
C    3.12433887   0.92541969   0.92438966
O    3.88722849  -0.18960993   1.46828949
C    2.94636893  -1.12739956   0.84965968
C    3.69946861  -2.25791907   0.16438994
O    4.47748852  -2.96492887   1.12922955
H    0.42256984  -0.62164980  -0.37825987
H    0.57764977   0.99604964  -0.28980991
H    2.78823900   0.01379000  -1.08763957
H    2.52067900   1.39977944   1.70548928
H    3.77844858   1.67030942   0.46240982
H    2.24719906  -1.50125945   1.61008942
H    4.38130856  -1.88130939  -0.60496974
H    3.00620890  -2.96276903  -0.30351987
H    4.91866827  -2.27701902   1.66574943

