%chk=mol_7039.chk
# wB97XD/Def2SVP opt pop=full gfinput

C 6 H 13 N 1

1 2
C    1.293347  -0.482844   0.655981
C    3.932671  -0.775884  -0.443179
C    5.567662   1.539938   0.118410
C    8.214186   1.366726  -1.037252
C    9.762797  -0.716641   0.100987
C   10.184566  -3.154407  -1.311602
N   12.209691  -1.305857  -1.039708
H    0.156507  -2.163018   0.249633
H    0.328359   1.157193  -0.155884
H    1.368691  -0.241450   2.709433
H    3.791641  -1.060628  -2.490168
H    4.798411  -2.477658   0.357536
H    5.719010   1.800701   2.170010
H    4.634232   3.230714  -0.635817
H    9.190002   3.163817  -0.696666
H    8.064501   1.151259  -3.094124
H    9.709828  -0.739393   2.148127
H    9.412480  -3.358232  -3.195754
H   10.368833  -4.890403  -0.241790
H   13.477451  -1.861040   0.306910

