%chk=mol_2072.chk
# wB97XD/Def2SVP opt freq pop=full gfinput

C 5 H 6 N 2

1 2
N    1.07334960  -0.30548990   0.36422986
C    2.41878915  -0.01349999   0.30083990
C    3.05351877   1.13798952   0.00000000
C    2.32405925   2.36927891  -0.28972986
C    2.85278893   3.52633882  -0.71554977
C    4.45951843   1.13798952   0.00000000
N    5.61052799   1.13798952   0.00000000
H    0.85351968  -1.28660953   0.19907992
H    0.47126982   0.31814989  -0.16724993
H    3.01199889  -0.89727968   0.54663980
H    1.24841952   2.34606910  -0.12993996
H    3.91374850   3.66245866  -0.90095967
H    2.21429920   4.38794851  -0.89171970

