%chk=mol_0115.chk
# wB97XD/Def2SVP opt freq pop=full gfinput

C 3 H 7 N 1 O 1

1 2
O    3.16514874  -1.00076962  -0.54530978
C    2.36592913   0.02316999   0.03323999
C    3.17060900   1.27821946   0.09244996
C    3.22957873   2.19924903  -1.09652960
N    2.49779916   2.57721925   0.11144996
H    2.60231900  -1.79108930  -0.59916979
H    2.07771921  -0.28817990   1.04200959
H    1.46052945   0.14233996  -0.57158977
H    4.05422878   1.17431951   0.71052974
H    2.62765884   1.96569932  -1.96581924
H    4.15390873   2.72662902  -1.29517949
H    3.03402877   3.25221896   0.66015977

