%chk=mol_6873.chk
# wB97XD/Def2SVP opt pop=full gfinput

C 5 H 8 N 2

1 2
C    1.860662  -0.191562   0.255793
C    4.629602   0.410505  -0.175858
N    5.367711   2.680444   1.321296
C    7.332156   1.953297   2.602758
N    8.189525  -0.499436   2.525883
C    6.473862  -2.476354   3.425998
C    6.388465  -1.646764   0.723822
H    1.322355  -1.925366  -0.736729
H    0.666450   1.351589  -0.432691
H    1.432450  -0.452117   2.263986
H    4.969564   0.801168  -2.181160
H    8.448399   3.221114   3.817587
H    7.438586  -4.218889   3.882480
H    5.068586  -1.833072   4.763999
H    7.289467  -2.740896  -0.743437

