%chk=mol_4819.chk
# wB97XD/Def2SVP opt freq pop=full gfinput

C 5 H 9 N 1 O 1

1 2
C    0.81024969   0.27768990  -0.05018998
C    2.28669906   0.06161997   0.16131993
O    2.70152879  -1.07593966   0.42026982
C    3.22921896   1.27411962   0.05621998
C    2.67948890   2.70903897   0.18547992
N    3.88301849   3.06953883   0.96390963
C    4.04749823   1.63933945   1.31126952
H    0.64857978   0.83867967  -0.97430962
H    0.39083987   0.81690973   0.80249971
H    0.30586991  -0.68861979  -0.14189996
H    3.87435865   1.17193949  -0.83061969
H    1.75327933   2.81358886   0.76200968
H    2.56508899   3.25528884  -0.75576973
H    4.64654827   3.43171883   0.39056984
H    5.08340788   1.28776956   1.31909955
H    3.57790875   1.36721945   2.26410913

