%chk=mol_0920.chk
# wB97XD/Def2SVP opt freq pop=full gfinput

C 4 H 4 O 2

1 2
O    1.43971944  -0.83795971  -0.54005980
C    2.34297895  -0.12468995   0.29466990
C    2.05164933   1.36692953   0.33190989
O    1.31118953   1.92620933  -0.47072983
C    2.72907901   2.13408923   1.35424948
C    3.28702879   2.77393889   2.20380926
H    1.14364958  -0.21132992  -1.23022962
H    3.35674858  -0.27597991  -0.08776997
H    2.27017927  -0.54053980   1.30362952
H    3.77416873   3.35197878   2.95557880

