%chk=mol_6187.chk
# wB97XD/Def2SVP opt freq pop=full gfinput

C 5 H 5 N 1 O 1

1 2
O    2.32841897  -0.77260971  -0.93670964
C    2.33929896   0.04767998  -0.02748999
C    1.48200953  -0.11784996   1.12457967
C    0.76863968  -0.26044992   2.08146930
C    3.28856874   1.18763959  -0.02381999
C    3.31172872   2.13469934  -1.19767964
N    2.70860910   2.53835917   0.06551997
H    0.12958996  -0.38855988   2.92396903
H    4.22028828   1.01803958   0.50221980
H    2.62845898   1.95502925  -2.01990914
H    4.24994850   2.60278916  -1.46709955
H    3.32942867   3.16254878   0.58400977

