%chk=mol_6119.chk
# wB97XD/Def2SVP opt pop=full gfinput

C 4 H 3 N 1 O 2

1 2
O    4.850852  -2.090831   0.207190
C    3.978516   0.052156   0.020749
C    5.517603   2.317314  -0.021033
N    4.453480   4.610006  -0.228751
O    6.437088   6.316996  -0.208248
C    8.651582   5.048063   0.009279
C    8.182042   2.507553   0.135418
H    1.922910   0.364207  -0.128086
H   10.335158   6.202629   0.044711
H    9.538128   0.993486   0.313827

