%chk=mol_6264.chk
# wB97XD/Def2SVP opt freq pop=full gfinput

C 4 H 5 N 1 O 2

1 2
O    2.63074899   3.26977897  -0.27689990
C    2.46906900   2.33812928  -1.04972959
C    3.18755865   1.02601957  -0.86972964
O    2.74588895   0.00403000  -1.37443948
C    4.42481852   1.09345961  -0.06291997
C    5.48210812   0.02597999  -0.19608992
N    5.65708780   1.31988943  -0.84009963
H    1.78348935   2.36043906  -1.91070938
H    4.35536814   1.62569940   0.87939966
H    5.29295826  -0.81402969  -0.85494965
H    6.11449766  -0.18755992   0.65640974
H    6.30759764   1.90750933  -0.31349990

