%chk=mol_5821.chk
# wB97XD/Def2SVP opt freq pop=full gfinput

C 4 H 6 N 2 O 1

1 2
N    3.29700875  -1.34402943   0.02944999
C    2.59764886  -0.18036993  -0.06596997
N    1.30529952  -0.21078992  -0.11757996
C    3.22818899   1.16075945  -0.12774995
C    4.53300858   1.34820950   0.09488997
C    5.08870792   2.71159887   0.03226999
O    6.28304720   2.91384888   0.21137992
H    4.24652815  -1.33829951  -0.32463989
H    2.80192900  -2.18766904  -0.23105991
H    0.97732961  -1.17445958  -0.03374999
H    2.54582906   1.97845924  -0.33956987
H    5.23229837   0.56092983   0.34119987
H    4.37922812   3.52650881  -0.18796994

