%chk=mol_7136.chk
# wB97XD/Def2SVP opt freq pop=full gfinput

C 6 H 15 N 1

1 2
C    1.76388943  -0.88607967   0.28738987
C    3.23160863  -0.50793982   0.06467998
C    3.70507860  -1.05447960  -1.28348947
C    3.39548874   1.02399957   0.16864994
C    4.84013796   1.54236937   0.05091998
C    4.86811781   3.06875896   0.14073995
N    5.68490791   0.97524965   1.10276961
H    1.41801941  -0.54005980   1.26668954
H    1.63286936  -1.97244930   0.25314990
H    1.11881948  -0.44214982  -0.47767982
H    3.81883860  -0.98988962   0.85649967
H    3.19421887  -0.55705982  -2.11422920
H    3.50477886  -2.12851906  -1.35844946
H    4.78245831  -0.91736966  -1.41279948
H    2.97301888   1.35707951   1.12662959
H    2.78696895   1.49852943  -0.61251974
H    5.25697803   1.25485957  -0.91991967
H    4.47012854   3.42427874   1.09797966
H    4.26645851   3.51309872  -0.65965980
H    5.89007759   3.45048881   0.03659999
H    5.32607794   1.24747956   2.01757932
H    6.62338734   1.36864948   1.03944957

