%chk=mol_0261.chk
# wB97XD/Def2SVP opt freq pop=full gfinput

C 5 H 11 N 1

1 2
C    0.93786961  -0.03220999   0.15205994
C    2.44816923   0.04035998  -0.02799999
C    2.86323881   0.01354999  -1.49698937
C    3.15662885   1.10388958   0.84811968
C    4.14611864  -0.01540999   1.20366955
N    3.13580894  -1.00225961   0.77615970
H    0.65289974  -0.05711998   1.21024954
H    0.52468979  -0.92801964  -0.32445988
H    0.45314983   0.84074968  -0.29849991
H    3.95149851   0.03613999  -1.62233937
H    2.45553899   0.88177967  -2.02649927
H    2.49001908  -0.88788968  -1.99565935
H    2.57288909   1.46009946   1.70548928
H    3.58160853   1.96612918   0.32712987
H    5.05612803  -0.02145999   0.59291983
H    4.42832851  -0.07750998   2.25798917
H    3.50597858  -1.79062927   0.24761991

