%chk=mol_4230.chk
# wB97XD/Def2SVP opt pop=full gfinput

C 5 H 5 N 1 O 1

1 2
C    1.889726   0.000000   0.000000
C    4.138803   0.000000   0.000000
C    6.867567   0.000000   0.000000
C    7.977328  -2.267067  -1.332654
C    8.535723  -1.081226  -3.799427
N    8.504580   1.351400  -3.839470
O    7.815378   2.150244  -1.372281
H   -0.124287   0.025152  -0.010828
H    7.575629   0.113384   1.941391
H    6.713517  -3.888112  -1.522004
H    9.769732  -2.876654  -0.500834
H    9.047083  -2.241499  -5.443942

