%chk=mol_0679.chk
# wB97XD/Def2SVP opt freq pop=full gfinput

C 5 H 6 O 1

1 2
C    3.08830881  -1.05745959  -0.12473995
C    2.51725888   0.15190995  -0.07158998
C    3.18281865   1.44171953  -0.02969999
C    2.47565913   2.58264899  -0.08298997
C    4.66784811   1.58336949   0.10638995
O    5.26356792   2.65406895   0.04706999
H    2.46628904  -1.94839931  -0.15849994
H    4.15918875  -1.22181952  -0.14838995
H    1.42708945   0.18375993  -0.07071997
H    1.39421940   2.58908916  -0.17194994
H    2.96071887   3.55515862  -0.04236998
H    5.22124815   0.64749974   0.27743989

