%chk=mol_3236.chk
# wB97XD/Def2SVP opt freq pop=full gfinput

C 5 H 4 O 2

1 2
C    0.99263966   0.02895999  -0.00581000
C    2.49167919  -0.04738998   0.00226000
O    3.11388898  -1.10093963   0.00703000
C    3.21495891   1.20210958   0.00057000
C    3.82795858   2.23521924  -0.00013000
C    4.56533813   3.47110868  -0.00049000
O    3.97985840   4.54395819  -0.00101000
H    0.64740980   1.06601954   0.00963000
H    0.60304976  -0.48300982   0.87824970
H    0.61385977  -0.45403981  -0.91062963
H    5.66270781   3.37728858  -0.00020000

