%chk=mol_1552.chk
# wB97XD/Def2SVP opt pop=full gfinput

C 5 H 14 N 2

1 2
C    2.053981  -0.260121  -0.060717
C    4.923625  -0.112193  -0.027514
N    5.715836   2.534066   0.052156
C    8.490842   2.738100  -0.001512
C    9.397910   5.523518   0.073888
C    8.780329   6.912033  -2.386497
N    8.262487   6.893362   2.218331
H    1.443864  -2.235867  -0.109321
H    1.278400   0.686594  -1.729874
H    1.234709   0.619244   1.623728
H    5.660429  -1.035079  -1.728929
H    5.642533  -1.135404   1.624125
H    5.120704   3.316639   1.713301
H    9.238587   1.830597  -1.708029
H    9.282638   1.742233   1.636805
H   11.453856   5.519682   0.328245
H    6.739689   7.035356  -2.714724
H    9.626511   5.938124  -4.004632
H    9.532799   8.840762  -2.353522
H    6.376276   7.085925   1.860605
H    8.955885   8.691323   2.243917

