%chk=mol_2076.chk
# wB97XD/Def2SVP opt pop=full gfinput

C 7 H 12

1 2
C    1.569455  -0.241715   0.255302
C    4.377475   0.001928   0.459336
C    5.817314   2.043323  -0.049171
C    4.714205   4.571682  -0.776999
C    8.599804   2.002713   0.217526
C   10.119351   0.031218  -1.169854
C   10.225894   2.734849  -2.005226
H    1.104734  -1.946834  -0.820179
H    0.674821   1.348886  -0.707854
H    0.739998  -0.424754   2.139869
H    5.330502  -1.719783   1.063368
H    2.771397   4.816742  -0.118221
H    4.750507   4.803552  -2.831963
H    5.812703   6.109862   0.068106
H    9.266026   2.551943   2.080532
H    9.153456  -1.301587  -2.391165
H   11.758802  -0.749314  -0.221703
H   11.939837   3.791339  -1.625486
H    9.335588   3.208755  -3.788901

