%chk=mol_2607.chk
# wB97XD/Def2SVP opt pop=full gfinput

C 6 H 10 O 1

1 2
C    4.792232  -0.867630   2.773532
C    4.970717   0.060055   0.058336
C    5.977865   2.691820  -0.098682
C    8.178413   3.436694  -1.066977
C    8.405766   6.205729  -0.774863
C    5.740648   6.899201   0.069806
O    4.477441   4.622100   0.871561
H    4.068769  -2.805147   2.818375
H    3.513190   0.314186   3.891570
H    6.647527  -0.856707   3.690654
H    3.096713  -0.006028  -0.821842
H    6.179518  -1.234350  -1.017523
H    9.600394   2.219975  -1.877594
H    9.808454   6.674154   0.671892
H    8.915955   7.164576  -2.532838
H    4.651504   7.723027  -1.489029
H    5.757637   8.254097   1.633253

