%chk=mol_1956.chk
# wB97XD/Def2SVP opt pop=full gfinput

C 5 H 10 N 2

1 2
N    1.854539   0.034374  -0.029933
C    4.601162  -0.000850   0.036755
C    5.760282   2.070705   1.706517
N    8.355310   1.197179   2.239590
C    8.063272  -1.546514   2.645314
C    5.738418  -2.320754   1.207762
C    4.828817  -4.687050   1.147782
H    1.244045  -1.271389  -1.304629
H    1.252019   1.742705  -0.676238
H    5.338627   0.197420  -1.892806
H    4.730343   2.291539   3.493404
H    5.776666   3.907840   0.755588
H    9.418376   1.437874   0.650217
H    9.747926  -2.543250   1.980036
H    7.817986  -1.910173   4.667586
H    3.101740  -5.149428   0.146926
H    5.783752  -6.215196   2.128266

