%chk=mol_4769.chk
# wB97XD/Def2SVP opt pop=full gfinput

C 4 H 10 N 2 O 1

1 2
C    6.470006   3.040097   6.250439
C    7.215655   2.664174   3.547526
N    8.904181   4.101084   2.511748
N    9.394207   3.521032   0.061926
C   11.437171   4.953180  -1.176676
C   10.845403   7.785540  -1.316478
O   10.678899   8.842293   1.156380
H    4.426608   3.321798   6.347212
H    7.437206   4.671856   7.065176
H    6.955137   1.339967   7.317851
H    6.266445   1.112255   2.519534
H    9.754728   1.634745  -0.171833
H   11.686482   4.221308  -3.095825
H   13.200285   4.643681  -0.135191
H    9.055587   8.128714  -2.296906
H   12.343748   8.781936  -2.335361
H    9.830375   7.511945   2.142949

