%chk=mol_5608.chk
# wB97XD/Def2SVP opt freq pop=full gfinput

C 5 H 11 N 1 O 1

1 2
N    1.82743931  -0.05747998   1.32254946
C    2.27073908   0.19545993  -0.04061998
C    3.28757882   1.28774953   0.00686000
C    3.35511875   2.32409906  -1.09049964
C    2.87133908   2.71564913   0.28307992
C    3.70538878   3.56327868   1.18222964
O    3.27653885   4.91290855   1.06769967
H    1.11055958  -0.78271973   1.30971944
H    1.36815953   0.77987975   1.68275928
H    1.41405952   0.46382985  -0.66653979
H    2.72103882  -0.71102977  -0.45449981
H    4.22652864   0.93928963   0.42644984
H    2.62330890   2.28318906  -1.89037931
H    4.33782816   2.64986920  -1.41307938
H    1.81294930   2.91370893   0.41710985
H    4.77026796   3.51404858   0.93455964
H    3.57965851   3.25251865   2.22288918
H    3.35521865   5.14997816   0.12733994

