%chk=mol_6413.chk
# wB97XD/Def2SVP opt pop=full gfinput

C 4 H 4 N 2 S 1

1 2
C    3.752108   0.616051  -1.282047
C    5.048725  -0.008031   1.276623
C    6.366979   2.445136   1.019280
N    7.240410   4.327209   2.402125
S    6.829168   6.819077   0.350317
N    5.051805   5.380447  -1.964786
C    5.223826   2.994687  -1.260183
H    1.703909   0.893595  -1.342707
H    4.242945  -0.638520  -2.855187
H    6.332019  -1.633555   1.244328
H    3.898694  -0.175556   2.986712

