%chk=mol_3893.chk
# wB97XD/Def2SVP opt pop=full gfinput

C 5 H 9 N 1 O 1

1 2
C    1.732217   0.022431  -0.314261
C    4.515444  -0.238049   0.028667
C    6.087979  -1.548139  -1.940957
C    6.303522   1.269329  -1.596271
N    8.541922   2.339556  -0.560663
C    8.560742   4.358294   1.047551
O   10.500623   5.309393   1.874627
H    1.035834   1.651299   0.752621
H    0.768646  -1.667494   0.386657
H    1.212297   0.283251  -2.299570
H    5.010647  -0.544279   1.993661
H    5.168722  -2.235206  -3.638082
H    7.623269  -2.739234  -1.290059
H    5.491185   2.429621  -3.086528
H   10.262063   1.672918  -1.075179
H    6.658318   5.053770   1.534647

