%chk=mol_7106.chk
# wB97XD/Def2SVP opt freq pop=full gfinput

C 6 H 7 N 1

1 2
C    1.04777968  -0.11772995   0.34021989
C    2.49854898  -0.06287998  -0.07551997
C    3.07618880  -1.17695951  -0.56381977
C    3.21815872   1.21707964   0.05127998
C    2.74770904   2.25777912   0.76449966
C    4.47124815   1.39708948  -0.62904978
N    5.48456764   1.55443943  -1.17479956
H    0.46501982   0.65053976  -0.18016993
H    0.94608963   0.02788999   1.42092943
H    0.58716983  -1.08299959   0.10054997
H    2.52211905  -2.10767937  -0.65388978
H    4.11356878  -1.22043955  -0.88398963
H    1.81401932   2.22552919   1.31405950
H    3.30183887   3.19179869   0.82910967

