%chk=mol_3323.chk
# wB97XD/Def2SVP opt pop=full gfinput

C 6 H 10 O 1

1 2
C    4.682364  -1.889669  -0.801376
O    4.128522   0.591446   0.065838
C    6.279673   2.243086  -0.020636
C    6.671735   3.327354  -2.692633
C    5.577073   5.928505  -2.529474
C    5.066205   6.587547  -0.149288
C    5.742046   4.540993   1.679135
H    2.947500  -3.008217  -0.711312
H    6.096597  -2.777709   0.418121
H    5.347547  -1.868996  -2.757375
H    7.950210   1.221217   0.657681
H    5.707634   2.229480  -4.153335
H    8.684671   3.463150  -3.152800
H    5.272223   7.125382  -4.158418
H    4.291114   8.391442   0.420275
H    7.433465   5.102903   2.731164
H    4.196628   4.187917   3.006819

