%chk=mol_3024.chk
# wB97XD/Def2SVP opt pop=full gfinput

C 6 H 8 O 1

1 2
C    5.240626   1.763662  -7.672515
C    7.018613   2.526262  -6.485786
C    9.188453   3.455156  -5.034967
O    9.538865   1.900913  -2.860649
C   11.613067   2.716708  -1.299262
C   12.651452   0.722480   0.435468
C   14.132695   1.528089  -1.845166
H    3.661099   1.075216  -8.713697
H    8.860567   5.409039  -4.434186
H   10.900224   3.398106  -6.197905
H   11.580865   4.634856  -0.569620
H   11.766587  -1.124689   0.407463
H   13.319055   1.310544   2.278858
H   15.810866   2.661982  -1.549103
H   14.264257   0.212500  -3.409028

