%chk=mol_5620.chk
# wB97XD/Def2SVP opt freq pop=full gfinput

C 4 H 2 N 2 O 1

1 2
N    0.95919961  -0.13107994  -0.00663000
C    2.11794925  -0.04980998  -0.00260000
C    3.52527857   0.08383997   0.00220000
C    4.35303831   1.17660952   0.00273000
C    5.64258766   0.61284971   0.00870000
N    5.60993814  -0.72311968   0.01162000
O    4.26056862  -1.05608964   0.00747000
H    4.07259846   2.21904898  -0.00067000
H    6.60300732   1.11045957   0.01107000

