%chk=mol_3809.chk
# wB97XD/Def2SVP opt pop=full gfinput

C 7 H 14

1 2
C    6.054267   1.944774  -4.631284
C    6.076490   0.305701  -2.268919
C    7.187781   1.638600   0.050645
C    9.907173   2.514526  -0.238767
C   11.826473   0.430215  -0.493275
C   10.451754   5.003693  -0.202163
C   12.978299   6.255598  -0.393460
H    5.093870   0.953820  -6.172979
H    7.972906   2.382831  -5.267347
H    5.053997   3.723838  -4.292796
H    7.107109  -1.447152  -2.658826
H    4.128050  -0.247875  -1.830786
H    7.085680   0.350204   1.673145
H    5.959630   3.239350   0.535889
H   11.464439  -0.682626  -2.198602
H   11.725183  -0.831631   1.143776
H   13.769735   1.108211  -0.623742
H    8.895205   6.338236  -0.003950
H   14.567974   4.942692  -0.371766
H   13.225797   7.552555   1.199712
H   13.078908   7.360257  -2.139359

