%chk=mol_5958.chk
# wB97XD/Def2SVP opt pop=full gfinput

C 4 H 6 N 2 O 1

1 2
O    3.079101   0.444086   2.401294
C    4.610856   0.034072   0.730474
C    5.650168  -2.490149  -0.046053
C    7.389679  -1.818068  -2.172297
C    9.612527  -0.078140  -1.762926
N    7.239956   0.890420  -2.783718
N    5.762436   1.823642  -0.796898
H    4.108378  -3.703372  -0.692566
H    6.666670  -3.365413   1.523781
H    7.406460  -3.127232  -3.737954
H   10.159036   0.459638   0.136306
H   11.165447  -0.180053  -3.094332
H    5.212224   3.656185  -0.731532

