%chk=mol_3480.chk
# wB97XD/Def2SVP opt freq pop=full gfinput

C 5 H 10 O 2

1 2
C    2.61447906  -0.23797990   1.30148959
O    2.28340912   0.22447991  -0.00010000
C    2.79501891   1.53686953  -0.24319991
O    4.21965837   1.56718946  -0.18688993
C    4.83540821   2.76594901  -0.41011983
C    4.29327822   3.95658851  -0.70816970
C    5.10724831   5.19119787  -0.92743963
H    2.09079909  -1.18235958   1.47232950
H    2.29635906   0.47847980   2.06495929
H    3.68972850  -0.42284986   1.38104951
H    2.35939932   2.22902918   0.48836982
H    2.46154904   1.81958938  -1.24791956
H    5.90759754   2.62627888  -0.31282988
H    3.22059870   4.08119869  -0.81054974
H    6.17788792   5.01358795  -0.78502971
H    4.79543781   5.97120762  -0.22614992
H    4.95420790   5.56210756  -1.94544935

