%chk=mol_4398.chk
# wB97XD/Def2SVP opt freq pop=full gfinput

C 5 H 5 N 1 O 1

1 2
C    0.89976966   0.03614999  -0.03264999
C    2.39111900  -0.00830000  -0.14244995
C    3.18381882   1.02667964   0.17655994
C    4.67211819   1.01669967   0.07922997
O    5.28900814   2.03027940   0.40157983
C    5.40226793  -0.15431994  -0.38406986
N    5.95265818  -1.10764956  -0.75846976
H    0.55410981  -0.74120969   0.65557975
H    0.44900984  -0.14616995  -1.01294959
H    0.53957981   1.00232959   0.33460987
H    2.80185890  -0.94933969  -0.50380981
H    2.77140903   1.96472931   0.53692985

