%chk=mol_2049.chk
# wB97XD/Def2SVP opt pop=full gfinput

C 6 H 9 N 1

1 2
N    3.716789  -1.439404  -2.041207
C    5.493150  -0.815719  -0.039684
C    5.429958   1.966128   0.428306
C    7.440513   3.503533   0.217262
C    7.367268   6.297078   0.700408
C    9.118042   6.939660   2.757262
C   10.546127   7.475209   4.439023
H    3.762086  -3.338881  -2.345623
H    4.323164  -0.626104  -3.678220
H    7.388980  -1.463139  -0.561022
H    4.949098  -1.805614   1.694045
H    3.611890   2.737155   1.003539
H    9.256597   2.728216  -0.356497
H    5.453787   6.924996   1.183517
H    7.914797   7.291433  -1.031242
H   11.810089   7.945240   5.934250

