%chk=mol_1733.chk
# wB97XD/Def2SVP opt pop=full gfinput

C 6 H 13 N 1

1 2
C    6.312063  -1.164563  -1.967243
N    5.264324   0.400471   0.040138
C    5.803765   3.127723  -0.161534
C    4.542448   4.247367  -2.538072
C    4.550120   4.378439   2.157973
C    8.628830   3.607393   0.032258
C   10.115288   4.820370  -1.626865
H    5.775211  -3.133846  -1.628339
H    8.378819  -1.095625  -2.020873
H    5.563033  -0.659212  -3.825977
H    5.886062  -0.251088   1.740854
H    5.391313   3.548622  -4.292381
H    4.696404   6.314482  -2.562828
H    2.521651   3.788523  -2.598052
H    5.307541   3.638838   3.941213
H    2.501449   4.059661   2.174394
H    4.858486   6.428773   2.162036
H    9.533517   2.876560   1.732539
H    9.400499   5.615246  -3.374824
H   12.121799   5.035761  -1.258180

