%chk=mol_0139.chk
# wB97XD/Def2SVP opt freq pop=full gfinput

C 5 H 10

1 2
C    1.03320956   0.01181000  -0.06547997
C    2.52298903   0.00396000  -0.01484999
C    3.31164861  -0.70754975  -1.08514953
C    3.32395864   0.79751968  -1.01747966
C    4.55772829   1.51921940  -0.59321976
H    0.63934976   0.78728968   0.59770977
H    0.64084977  -0.95345968   0.26715988
H    0.65677971   0.20387992  -1.07496965
H    2.88878894  -0.06844997   1.00402963
H    2.77354908  -1.17298949  -1.90352929
H    4.20036840  -1.24982953  -0.78097969
H    2.79327917   1.33849955  -1.79362929
H    5.09179831   0.98909962   0.20261993
H    4.30114841   2.51719904  -0.22476992
H    5.23729801   1.63286936  -1.44267952

