%chk=mol_5598.chk
# wB97XD/Def2SVP opt freq pop=full gfinput

C 4 H 6 N 2 O 1

1 2
N    0.91027969  -0.04205999   0.00694000
C    2.19551921  -0.05510998  -0.00084000
N    2.94458890  -1.18378949   0.01109000
C    4.30116844  -1.22428954   0.00586000
C    5.00170803  -0.09093997  -0.01514999
C    4.28292847   1.22112954  -0.03359999
O    2.83480906   1.13758957  -0.02211999
H    0.64380980   0.94904965  -0.00562000
H    2.42791915  -2.05331922   0.02760999
H    4.75404835  -2.20983911   0.01968999
H    6.08549786  -0.09832996  -0.01961999
H    4.57621813   1.81353939   0.83887970
H    4.56419802   1.78222930  -0.93022966

