%chk=mol_7091.chk
# wB97XD/Def2SVP opt freq pop=full gfinput

C 6 H 7 N 1

1 2
C    0.84978968  -0.26370990  -0.42482984
C    2.34379911  -0.26185989  -0.37159985
C    3.06448865   0.66340971   0.27824992
C    4.50991821   0.64369977   0.31592986
C    5.23415804   1.56713939   0.96473962
C    6.63946724   1.53327942   0.99253964
N    7.78991699   1.50555944   1.01529968
H    0.46308982  -1.19301951   0.00456000
H    0.51417983  -0.19880992  -1.46451938
H    0.41367984   0.57481974   0.12750995
H    2.83740902  -1.07265961  -0.90166968
H    2.55463910   1.46922946   0.80439973
H    5.01166821  -0.16629994  -0.21270992
H    4.75538826   2.38134909   1.49712944

