%chk=mol_6497.chk
# wB97XD/Def2SVP opt freq pop=full gfinput

C 6 H 8 S 1

1 2
C    2.35075927  -0.59126979  -1.41244948
C    2.53873920  -0.06353997   0.00199000
C    3.04477882   1.34863949   0.00510000
C    2.30952930   2.51735902  -0.03080999
C    3.13596892   3.67731857  -0.01400999
C    4.47375822   3.35546875   0.03618999
S    4.72651815   1.66515934   0.06313998
H    1.96698928  -1.61574936  -1.38588941
H    3.29676867  -0.59752977  -1.96377933
H    1.63883948   0.02336999  -1.97404933
H    3.22330880  -0.72057974   0.55086982
H    1.57852936  -0.10407996   0.53177983
H    1.22682953   2.53993893  -0.06892998
H    2.76853895   4.69575834  -0.03720999
H    5.31767797   4.03159857   0.05903998

