%chk=mol_5891.chk
# wB97XD/Def2SVP opt pop=full gfinput

C 4 H 8 N 2 O 1

1 2
N    2.182709   0.107412   0.482957
N    4.632210   0.175140  -0.521319
C    6.244165   2.333226  -0.165181
C    8.631645   1.561122  -1.550936
C    8.769558  -1.293102  -1.146251
C    6.034462  -2.050126  -0.839057
O    5.222239  -4.208628  -0.749976
H    1.896699  -1.693705   1.154944
H    0.950759   0.242679  -1.001045
H    6.600284   2.580856   1.858829
H    5.378671   4.035983  -0.952403
H    8.430541   1.959174  -3.577233
H   10.313842   2.552944  -0.872411
H    9.628117  -2.253687  -2.759151
H    9.787912  -1.755121   0.592769

