%chk=mol_3966.chk
# wB97XD/Def2SVP opt freq pop=full gfinput

C 4 H 5 N 1 O 2

1 2
C    0.99499965   0.03769999   0.00288000
C    2.47232914  -0.04723999   0.00407000
N    3.20846868   1.07167959   0.00466000
O    4.53031826   0.64789975   0.00601000
C    4.56329823  -0.70822978   0.00640000
O    5.77312803  -1.24030960   0.00785000
C    3.28718877  -1.20372951   0.00521000
H    0.54249978  -0.95903963  -0.00999000
H    0.64103973   0.58075976  -0.87931967
H    0.63887972   0.55909979   0.89718968
H    5.65647793  -2.20387912   0.00816000
H    2.97959900  -2.23732924   0.00523000

