%chk=mol_2445.chk
# wB97XD/Def2SVP opt pop=full gfinput

C 5 H 10 O 2

1 2
C    1.987633  -0.115897   0.016837
C    4.803892  -0.075041  -0.033448
C    6.282659  -1.323526  -2.126093
O    4.853232  -2.464619  -4.124214
C    6.190006   1.521060  -1.949819
C    8.486401   2.967002  -1.197047
O    9.958158   3.461204  -3.384065
H    1.284088   1.353252   1.292421
H    1.314645  -1.944169   0.710820
H    1.156134   0.215485  -1.847982
H    5.576620  -0.227920   1.859339
H    8.013988  -2.278953  -1.575389
H    3.959373  -1.226527  -5.146159
H    5.076296   2.563621  -3.316413
H    9.656803   1.947608   0.171493
H    7.946015   4.779079  -0.360900
H   10.396177   1.832675  -4.115200

