%chk=mol_4011.chk
# wB97XD/Def2SVP opt freq pop=full gfinput

C 4 H 5 N 1 O 2

1 2
C    1.00502956  -0.00268000  -0.00713000
C    2.48639917   0.05868998   0.00003000
C    3.28032875   1.12396955   0.00430000
N    4.53973818   0.64471972   0.01080000
C    4.51018810  -0.72809970   0.01057000
O    5.48771811  -1.45946956   0.01578999
O    3.19341898  -1.16353953   0.00358000
H    0.56240982   0.99845958  -0.00398000
H    0.64219975  -0.53706980   0.87622964
H    0.65046972  -0.52801979  -0.89920962
H    3.04376888   2.17618918   0.00325000
H    5.39888763   1.17264962   0.01528999

