%chk=mol_6051.chk
# wB97XD/Def2SVP opt freq pop=full gfinput

C 4 H 4 N 2 O 1

1 2
O    0.96133965   0.03630999  -0.00246000
C    2.31838918   0.01093000  -0.00009000
C    3.03665876   1.18480957   0.00287000
N    4.38564873   1.23379958   0.00530000
C    5.00859785   0.04410999   0.00486000
N    4.41430855  -1.16152966   0.00206000
C    3.06533885  -1.14608955  -0.00031000
H    0.62306976  -0.87530965  -0.00402000
H    2.53431916   2.14719915   0.00327000
H    6.09319782   0.05769998   0.00690000
H    2.60213923  -2.12711930  -0.00260000

