%chk=mol_0767.chk
# wB97XD/Def2SVP opt pop=full gfinput

C 4 H 8 O 2

1 2
C    1.732784  -1.031753   0.412622
C    4.409884   0.025209   0.289260
C    4.505485   2.835383  -0.359709
O    3.287897   3.277371  -2.714157
C    3.362749   4.427345   1.748394
O    1.603527   5.901444   1.387286
H    1.787851  -3.056481   0.839681
H    0.740565  -0.792967  -1.388117
H    0.624006  -0.103765   1.893090
H    5.439047  -1.032433  -1.164544
H    5.356750  -0.320082   2.097105
H    6.477528   3.433122  -0.556978
H    1.949536   4.513554  -2.387537
H    4.247746   4.227449   3.623871

