%chk=mol_6814.chk
# wB97XD/Def2SVP opt freq pop=full gfinput

C 5 H 8 N 2

1 2
C    0.93165964   0.04673998  -0.00644000
C    2.41583920   0.00485000  -0.00005000
C    3.27109885   1.09317970   0.00109000
N    4.56183815   0.63009971   0.00887000
C    4.55493832  -0.73998976   0.01224000
C    3.24624872  -1.14280951   0.00743000
N    2.84798908  -2.41844893   0.01016000
H    0.56253982   1.07708967   0.00172000
H    0.53077984  -0.46357983   0.87428963
H    0.53990978  -0.44611984  -0.90200961
H    3.06903887   2.15538907  -0.00231000
H    5.39060783   1.20960963   0.01213000
H    5.48010826  -1.29693949   0.01891999
H    1.87161934  -2.68654895  -0.03028999
H    3.50243855  -3.19212866  -0.02057999

