%chk=mol_1415.chk
# wB97XD/Def2SVP opt freq pop=full gfinput

C 5 H 12 N 2

1 2
C    0.86443967  -0.23963991  -0.20675991
C    2.38826919  -0.18962993  -0.14537995
C    2.99681878  -1.23660958  -1.07621956
N    2.85531902   1.12896955  -0.54870981
C    2.73531914   2.27221894   0.19975992
C    2.74820900   3.58694863  -0.54566979
N    2.62232900   2.31525922   1.48248947
H    0.41881984   0.48118982   0.48760983
H    0.49443984  -1.23498952   0.06119998
H    0.49761981   0.00185000  -1.21124959
H    2.72052884  -0.41790983   0.87304968
H    2.70373917  -1.06610954  -2.11859918
H    2.67493892  -2.24447918  -0.79347968
H    4.09131861  -1.20590949  -1.03192961
H    2.82850909   1.27798951  -1.55355942
H    3.71558857   3.71286845  -1.03968954
H    2.58221912   4.42376804   0.13813995
H    1.95852923   3.58257866  -1.30220950
H    2.66272902   1.37253952   1.86716938

