%chk=mol_0207.chk
# wB97XD/Def2SVP opt pop=full gfinput

C 4 H 8 O 1

1 2
C    1.725037   0.023886   0.106713
C    4.537516   0.025266   0.363527
C    6.017455   1.971910  -0.309121
C    8.827780   2.002789  -0.053838
O    9.891621   2.302971  -2.494949
H    1.131719  -1.528732  -1.124595
H    1.010890   1.792160  -0.695230
H    0.848884  -0.244436   1.960685
H    5.376384  -1.678681   1.151731
H    5.176546   3.678295  -1.088010
H    9.569044   0.261463   0.781175
H    9.422515   3.594448   1.122875
H    9.161770   0.988081  -3.551268

