%chk=mol_2022.chk
# wB97XD/Def2SVP opt pop=full gfinput

C 5 H 8 N 2

1 2
N    6.351804  -1.637221  -4.617905
C    6.538453  -0.900360  -2.560541
C    6.781490   0.048566   0.034771
C    8.185670   2.550204   0.065838
C    6.763009   4.899380  -0.921733
N    7.844914   6.356415   1.205135
C    8.197613   3.968406   2.612093
H    7.807744  -1.338890   1.179850
H    4.898926   0.247365   0.876360
H   10.099925   2.387121  -0.731173
H    4.695970   4.775054  -0.853249
H    7.324654   5.560614  -2.798080
H    9.505209   7.232511   0.756004
H    9.956967   3.850374   3.691145
H    6.616385   3.529612   3.877132

