%chk=mol_5011.chk
# wB97XD/Def2SVP opt pop=full gfinput

C 5 H 11 N 1 O 1

1 2
C    4.807765  -1.833752  -0.791871
N    4.162651   0.547057   0.432407
C    6.302898   2.323059   0.455216
C    6.673719   4.078804  -1.750737
C    5.872740   5.131684   0.760142
C    3.281150   6.203744   1.087859
O    7.797312   6.454416   2.146634
H    3.158488  -3.080556  -0.792872
H    6.343395  -2.799440   0.202314
H    5.367352  -1.531207  -2.760040
H    3.597831   0.190579   2.242236
H    8.003708   1.595685   1.357126
H    5.301627   4.020657  -3.269415
H    8.593189   4.411660  -2.376066
H    1.883509   5.284071  -0.131790
H    3.278845   8.222141   0.627068
H    2.661906   5.992416   3.051114
H    7.999645   8.167529   1.513179

