%chk=mol_0574.chk
# wB97XD/Def2SVP opt pop=full gfinput

C 4 H 6 N 2

1 2
N    5.538919  -2.926808   1.326852
C    4.506619  -0.993864   0.283270
N    5.638433   1.268857  -0.124438
C    8.328874   1.602809   0.218358
C    9.002882   4.243286  -0.322860
C    9.551281   6.401126  -0.767720
H    4.255304  -4.377059   1.413080
H    2.528227  -1.047740  -0.376226
H    4.830858   2.446477  -1.398322
H    9.366144   0.345158  -1.058530
H    8.867729   1.130018   2.160789
H   10.040360   8.316401  -1.153716

