%chk=mol_5162.chk
# wB97XD/Def2SVP opt pop=full gfinput

C 4 H 9 N 1 O 2

1 2
C    2.079171  -0.541955   2.408928
N    4.346653  -0.248045   0.877645
C    5.150316   2.411196   0.785276
C    7.612157   2.692009  -0.723973
O    9.670220   1.382372   0.483297
C   10.800408   2.646902   2.401086
O   10.217201   4.723597   3.215086
H    1.529620  -2.534387   2.447876
H    0.498094   0.524796   1.609631
H    2.393130   0.070071   4.359277
H    5.777346  -1.303817   1.625807
H    5.425971   3.117594   2.712418
H    3.678919   3.549454  -0.124911
H    8.086535   4.691566  -0.987968
H    7.394706   1.875837  -2.614398
H   12.360000   1.490219   3.147943

