%chk=mol_6306.chk
# wB97XD/Def2SVP opt freq pop=full gfinput

C 4 H 8 N 2 O 1

1 2
O    2.16252923   1.54260933  -0.26747990
C    3.24397874   1.18408954   0.18186994
N    4.41822863   1.90496933   0.11423996
N    4.43957806   3.12174869  -0.58577979
C    4.54339838   4.19605827   0.41038987
C    5.88689804   4.79911804   0.71234977
C    4.86908817   5.58572817  -0.06174998
H    3.38590884   0.22071990   0.69756973
H    5.29571819   1.50531948   0.43078983
H    3.54217863   3.20403886  -1.08466959
H    3.82584858   4.14101839   1.22807956
H    6.75281763   4.43273830   0.17350993
H    6.09008789   5.09859800   1.73332930
H    4.37579870   6.41284752   0.43514985
H    5.04592848   5.74412775  -1.11915958

