%chk=mol_1007.chk
# wB97XD/Def2SVP opt freq pop=full gfinput

C 4 H 9 N 1 O 1

1 2
C    1.13047957   0.11892995   0.08728997
C    2.62353921  -0.12307995  -0.11796996
N    2.85086894  -0.80970967  -1.38880944
C    3.37866855   1.17437959  -0.12569995
C    3.79659867   1.83465934   1.16471958
O    4.72748804   1.10022950   0.35871986
H    0.94878966   0.61859971   1.04510963
H    0.57411981  -0.82466966   0.09047996
H    0.71385974   0.75867975  -0.69925976
H    2.99128890  -0.76630974   0.69034976
H    2.43504906  -0.28081989  -2.15289927
H    2.37789917  -1.71163940  -1.37665939
H    3.17927885   1.80375934  -0.98284966
H    3.49598861   1.39204955   2.10556936
H    3.89609861   2.91246891   1.18110955

