%chk=mol_3683.chk
# wB97XD/Def2SVP opt freq pop=full gfinput

C 5 H 10 O 2

1 2
O    2.55264926   3.43631887  -0.38846985
C    2.23361921   2.06233931  -0.55187982
C    3.04354882   1.23055947   0.43333983
C    4.52258825   1.26116955   0.07355997
C    5.32997799   2.50395918   0.47999981
O    6.34900761   1.67496932   1.09806955
C    5.46415758   0.52883983   1.03706968
H    1.99607933   3.93540859  -1.01184964
H    2.44269919   1.77279937  -1.58646929
H    1.16426957   1.93529928  -0.35708988
H    2.68508911   0.19498993   0.40096986
H    2.89169884   1.60371935   1.45333946
H    4.70218801   0.96346962  -0.96810961
H    4.87052822   3.16886878   1.21835959
H    5.73194790   3.09033871  -0.35022986
H    5.96533775  -0.34926987   0.62017977
H    5.06213808   0.28983989   2.02672935

