%chk=mol_0813.chk
# wB97XD/Def2SVP opt pop=full gfinput

C 5 H 8 O 1

1 2
C    6.649096  -2.116418  -0.541425
O    4.846146  -0.168148  -0.110020
C    5.744182   2.249398   0.078083
C    8.129753   3.089494  -0.090102
C    8.767196   5.733694   0.152350
C   11.134682   6.603119  -0.018746
H    5.631308  -3.912395  -0.652012
H    7.993409  -2.239401   1.026424
H    7.633757  -1.829425  -2.338366
H    4.153505   3.503061   0.405838
H    9.684129   1.792008  -0.419859
H    7.235723   7.064836   0.489118
H   12.735809   5.365235  -0.353435
H   11.522322   8.608647   0.175763

