%chk=mol_6670.chk
# wB97XD/Def2SVP opt freq pop=full gfinput

C 5 H 8 N 2

1 2
C    0.97938967  -0.10001996   0.04047999
C    2.47005916   0.01120000  -0.04034998
C    3.12319899   1.18333948  -0.06823998
C    4.62528801   1.24677944  -0.15044995
N    5.32432795  -0.05247998  -0.21083993
C    4.57788801  -1.09932959  -0.17644994
N    3.21830893  -1.13900959  -0.09226996
H    0.49472982   0.88187963   0.03688999
H    0.68618977  -0.61638975   0.96042961
H    0.59282976  -0.66672975  -0.81301969
H    2.58868909   2.12656903  -0.03103999
H    5.00014830   1.79419935   0.72166973
H    4.90228844   1.82319939  -1.04024959
H    5.03392792  -2.10182929  -0.21711992
H    2.73235893  -2.02631927  -0.07664997

