%chk=mol_4968.chk
# wB97XD/Def2SVP opt pop=full gfinput

C 5 H 7 N 1 O 1

1 2
C    1.860624   0.011867  -0.016327
N    4.590825  -0.058676  -0.003005
C    6.101321   2.050920   0.008390
C    8.581398   1.265020   0.021448
C    8.562160  -1.406561   0.017310
C    6.078493  -2.194123   0.001191
O    5.183727  -4.539595  -0.008712
H    1.213166   1.973158  -0.001946
H    1.175429  -0.961719   1.671387
H    1.193475  -0.931786  -1.728022
H    5.302477   3.933843   0.006652
H   10.224722   2.481910   0.032730
H   10.185208  -2.648848   0.024699
H    3.351732  -4.518184  -0.024264

