%chk=mol_5211.chk
# wB97XD/Def2SVP opt freq pop=full gfinput

C 4 H 9 N 1 O 2

1 2
C    1.29871953  -0.55566978  -0.82743967
N    2.68887901  -0.38945988  -0.49720982
C    3.37127852   0.77245975  -0.80312973
O    2.88514876   1.69990945  -1.44108939
C    4.81620836   0.75594968  -0.27228990
C    5.51151800   2.09676909  -0.44349983
O    4.83455801   0.37527984   1.10352969
H    1.05635965  -1.62051940  -0.78981966
H    1.09581959  -0.16124994  -1.82722938
H    0.69703972  -0.01226000  -0.09370996
H    3.11032867  -0.98881960   0.20575991
H    5.36341810  -0.00889000  -0.83372968
H    4.99170828   2.88441873   0.11404996
H    5.55071783   2.39355898  -1.49707949
H    6.53426743   2.05127907  -0.05327998
H    4.42228842   1.10372961   1.60223937

