%chk=mol_2128.chk
# wB97XD/Def2SVP opt pop=full gfinput

C 4 H 5 N 3

1 2
N    1.855881  -0.127462   0.011527
C    4.400114  -0.049719  -0.342513
N    5.654042  -2.137753  -0.531826
C    5.737492   2.410780  -0.512059
C    8.255779   2.490678  -0.764073
C    9.576584   4.812981  -0.936643
N   10.632449   6.732093  -1.067657
H    1.017334   1.435644   0.735973
H    1.126957  -1.751134   0.712748
H    4.439950  -3.636665  -0.443160
H    4.597836   4.110703  -0.439607
H    9.371964   0.772501  -0.846446

