%chk=mol_3798.chk
# wB97XD/Def2SVP opt freq pop=full gfinput

C 7 H 10

1 2
C    0.98508966  -0.00649000  -0.03281999
C    2.50294900  -0.10757996  -0.01421999
C    3.15503883   1.27862954  -0.03011999
C    4.66433811   1.21365952   0.02840999
C    5.35477829   1.71728933   1.06360960
C    5.38664818   0.63291979  -1.05714953
C    5.99083757   0.13583995  -1.96845925
H    0.53842980  -1.00559962  -0.01524999
H    0.63759977   0.50499982  -0.93619967
H    0.61747974   0.54527980   0.83818972
H    2.82693911  -0.69137979  -0.88404965
H    2.81539893  -0.66017979   0.87997967
H    2.76867914   1.86358929   0.81481969
H    2.85625887   1.81902933  -0.93752968
H    4.85546827   2.18198919   1.90731931
H    6.44003773   1.68085945   1.09411955
H    6.52799749  -0.30639988  -2.77378893

