%chk=mol_6118.chk
# wB97XD/Def2SVP opt freq pop=full gfinput

C 4 H 5 N 1 O 2

1 2
O    2.90046883  -0.83568966  -0.87159967
C    2.18260908   0.08868997  -0.05128998
C    2.87264895   1.40123951   0.07128998
N    2.27565908   2.41766906   0.71118975
O    3.16859889   3.47471881   0.64943975
C    4.28168869   3.08561897  -0.01767999
C    4.14970827   1.77962935  -0.40628985
H    2.35943913  -1.64225936  -0.90861964
H    2.06497931  -0.36235988   0.93986964
H    1.18969953   0.22812992  -0.49249980
H    5.05041838   3.83607864  -0.12587996
H    4.85800791   1.17724955  -0.95396960

