%chk=mol_4983.chk
# wB97XD/Def2SVP opt pop=full gfinput

C 5 H 10 N 2

1 2
C   -2.370983  -0.002003   1.768160
C   -1.132607  -1.931943  -0.048264
C    1.719802  -2.285718   0.480387
N    3.185341  -0.001739  -0.206887
C    1.720218   2.282732   0.486812
C   -1.132078   1.930903  -0.042179
N   -1.606059   0.002230  -2.122238
H   -1.728249  -0.005386   3.731491
H   -4.444976  -0.002211   1.747014
H   -2.156990  -3.714748  -0.263862
H    2.029282  -2.745999   2.476014
H    2.444512  -3.877113  -0.627748
H    3.226821   0.001531  -2.143516
H    2.446288   3.876660  -0.617657
H    2.030341   2.737174   2.483270
H   -2.155478   3.714937  -0.253752
H   -3.431573   0.003874  -2.744241

