%chk=mol_0671.chk
# wB97XD/Def2SVP opt pop=full gfinput

C 6 H 6

1 2
C    5.298357  -2.148354   1.285052
C    4.322711   0.097963   0.644775
C    5.737284   2.363178   0.000000
C    4.520225   4.503501  -0.609342
C    8.394239   2.363178   0.000000
C   10.643315   2.363178   0.000000
H    4.067730  -3.725595   1.734145
H    7.319287  -2.487806   1.382939
H    2.269599   0.260121   0.598816
H    2.473765   4.620872  -0.642715
H    5.547196   6.212966  -1.095890
H   12.655515   2.362555   0.000170

