%chk=mol_2740.chk
# wB97XD/Def2SVP opt pop=full gfinput

C 6 H 14 O 1

1 2
C    1.825929  -0.046431  -0.014626
C    4.697916   0.010034   0.039817
C    5.707181   2.716878  -0.014475
C    8.596591   2.760550   0.024982
C    9.608369   5.462064  -0.015968
C   12.486554   5.514996   0.011924
O   13.352068   8.058567   0.001266
H    1.148141  -1.999519   0.031729
H    1.100123   0.844519  -1.734221
H    1.033907   0.947414   1.617039
H    5.429353  -1.046209  -1.585291
H    5.364611  -0.953934   1.748016
H    4.972304   3.763843   1.617114
H    5.020247   3.679958  -1.717137
H    9.327329   1.721144  -1.611861
H    9.281938   1.788834   1.721900
H    8.888705   6.525414   1.611880
H    8.917712   6.461427  -1.696124
H   13.274286   4.548079  -1.639035
H   13.223510   4.598233   1.712697
H   12.726437   8.848756  -1.532530

