%chk=mol_3969.chk
# wB97XD/Def2SVP opt freq pop=full gfinput

C 5 H 11 N 1 O 1

1 2
C    0.92842966   0.01280999  -0.10510996
C    2.41217923  -0.12122995  -0.07861997
C    3.15047884  -0.65786976  -1.27934957
N    3.21070886   0.76053971  -0.92493969
C    4.48029852   1.16145957  -0.29144990
C    5.29454803   1.99267924  -1.28855944
O    4.55238867   3.13722873  -1.70292926
H    0.60834980   0.80119967   0.58420974
H    0.46062982  -0.92502964   0.21095993
H    0.55082983   0.26048991  -1.10338962
H    2.78368902  -0.36769986   0.90991968
H    2.58578897  -0.89447969  -2.17362928
H    4.02049828  -1.28131950  -1.11429954
H    5.08327770   0.31432986   0.05970998
H    4.24397802   1.78831935   0.57781976
H    5.55047798   1.40715945  -2.17750931
H    6.22321749   2.33987904  -0.82618970
H    3.64425874   2.80477905  -1.85070920

