%chk=mol_0167.chk
# wB97XD/Def2SVP opt freq pop=full gfinput

C 4 H 11 N 1

1 2
C    0.97019964  -0.07978997   0.06059998
C    2.48923898   0.01551999   0.08886997
C    3.00964880   1.45981944   0.03024999
C    2.59262896   2.29214907   1.24249959
N    4.47284794   1.42711949  -0.05765998
H    0.66128975  -1.12877953   0.00228000
H    0.55878979   0.44266984  -0.80932969
H    0.52333981   0.34513986   0.96457964
H    2.88048911  -0.54539979  -0.76934969
H    2.85985899  -0.48794982   0.99014962
H    2.62893891   1.94218934  -0.87812972
H    2.90918899   1.82223940   2.17959905
H    1.50696945   2.42229915   1.27691960
H    3.03449893   3.29393888   1.20086956
H    4.85890770   1.00090957   0.78446972
H    4.83595848   2.37947893  -0.08280997

