%chk=mol_0131.chk
# wB97XD/Def2SVP opt freq pop=full gfinput

C 5 H 8

1 2
C    0.99318957  -0.03170999   0.01060000
C    2.51999903   0.00000000   0.00000000
C    3.06008887  -0.76414973  -1.20840955
C    3.00201893   1.36116946   0.00000000
C    3.39929867   2.48306894   0.00000000
H    0.59524977   0.48826984   0.89012969
H    0.62431979  -1.06315958   0.03687999
H    0.57370973   0.45472983  -0.87830967
H    2.87491894  -0.50615984   0.90627962
H    2.73216891  -0.30990988  -2.15020919
H    2.71684885  -1.80377924  -1.19627953
H    4.15563869  -0.77265972  -1.20880961
H    3.75494862   3.48765850  -0.00016000

