%chk=mol_3699.chk
# wB97XD/Def2SVP opt freq pop=full gfinput

C 5 H 8 O 2

1 2
O    4.30206823   1.19458961   2.24289918
C    3.29031873   1.67341948   1.74051940
C    3.09037900   1.89926922   0.26210991
C    4.35963821   1.70151937  -0.55996984
C    5.37229824   2.77713895  -0.30911988
C    6.08052778   3.46709871  -1.44560945
O    4.97871828   4.07970858  -0.76077968
H    2.42404914   1.93636930   2.37217903
H    2.69583917   2.91252875   0.13018996
H    2.32137918   1.19215965  -0.06762998
H    4.08660841   1.68696940  -1.62221944
H    4.81399822   0.72847974  -0.33899987
H    5.87610769   2.69468904   0.64570975
H    5.91160774   3.12736893  -2.45937920
H    7.06813717   3.87212849  -1.26319957

