%chk=mol_6323.chk
# wB97XD/Def2SVP opt pop=full gfinput

C 4 H 5 N 1 O 2

1 2
O    2.255993  -0.020050   0.523851
N    4.914951  -0.001852   0.766945
C    6.164873  -2.276062  -0.056314
C    8.624993  -1.222407  -0.953839
C    8.647009   1.307275  -0.998437
C    6.121107   2.122314  -0.171512
O    5.225924   4.221818  -0.477590
H    1.892164   1.748223   0.103935
H    5.117624  -3.179653  -1.592831
H    6.375577  -3.555652   1.549273
H   10.191482  -2.398799  -1.529847
H   10.106955   2.577983  -1.614714

