%chk=mol_5464.chk
# wB97XD/Def2SVP opt pop=full gfinput

C 4 H 8 N 2 O 1

1 2
C    4.534738   1.192871   1.276453
O    5.730065   3.531275   0.705359
N    8.081905   3.590858   1.929977
C    9.171238   5.723036   1.440425
N   11.506883   6.612586   2.230160
C   12.344636   5.835210   4.766040
C   13.539321   4.728397   2.469532
H    2.732053   1.117149   0.270325
H    4.171873   1.054524   3.307682
H    5.712566  -0.388849   0.652447
H    8.238922   7.149590   0.233816
H   11.007863   4.718948   5.835267
H   13.321908   7.323822   5.765951
H   15.352022   5.441183   1.858867
H   13.049428   2.825651   1.905543

