%chk=mol_6696.chk
# wB97XD/Def2SVP opt freq pop=full gfinput

C 3 H 2 O 3 S 1

1 2
O    2.72089911  -0.99799961  -0.16045994
C    2.13541913   0.06839997   0.01190000
S    3.00711894   1.58469939   0.07880997
O    2.80469918   2.33392906  -1.13953960
O    2.95662904   2.13010907   1.41607952
C    4.75050831   1.25377953  -0.04996998
C    5.92960787   1.03475964  -0.13625996
H    1.04424953   0.13173996   0.13301995
H    6.97449732   0.84343970  -0.21275991

