%chk=mol_6661.chk
# wB97XD/Def2SVP opt pop=full gfinput

C 4 H 6 N 2 S 1

1 2
N    3.878890  -0.755664  -2.469249
C    4.833806  -0.097170   0.026777
C    5.636108   2.598014   0.001002
C    4.077405   4.664562  -0.390871
S    5.827065   7.376300  -0.228260
N    8.559817   5.958306   0.361316
C    8.161879   3.477795   0.422297
H    3.441701  -2.630008  -2.505531
H    5.276852  -0.503159  -3.771553
H    6.416792  -1.337227   0.518711
H    3.347593  -0.380742   1.439083
H    2.071480   4.697443  -0.771783
H    9.790747   2.294789   0.790283

