%chk=mol_1936.chk
# wB97XD/Def2SVP opt freq pop=full gfinput

C 5 H 8 N 2

1 2
N    0.87722969   0.04169998  -0.00179000
C    2.17044926   0.02216999   0.02611999
C    2.86349893  -1.33726954   0.04846998
C    4.35456848  -1.22927952   0.02644999
C    4.99787855  -0.05429998  -0.01321999
C    4.32879829   1.28225958  -0.04046999
N    2.89114904   1.18125951   0.04499998
H    0.55039978   1.00841963  -0.00450000
H    2.52128911  -1.91224933  -0.81920969
H    2.54544902  -1.86708939   0.95314968
H    4.91839790  -2.15740919   0.04285998
H    6.08485794  -0.04889998  -0.02992999
H    4.69328833   1.88501918   0.79780972
H    4.59959841   1.80174935  -0.96562964
H    2.39210916   2.05682921  -0.01784999

