%chk=mol_4246.chk
# wB97XD/Def2SVP opt pop=full gfinput

C 5 H 11 N 1 O 1

1 2
C    4.604639  -3.005742  -0.703866
C    3.555501  -0.353946  -0.340925
C    5.556589   1.524915   0.433371
C    6.968025   1.102013   2.868831
N    5.233483   1.238111   5.006811
C    6.717731   3.210758  -1.572611
O    4.774185   4.113405   0.084754
H    3.149361  -4.248974  -1.483926
H    5.226359  -3.817152   1.097099
H    6.218541  -3.000091  -1.993113
H    2.040602  -0.396030   1.070776
H    2.674114   0.247233  -2.119517
H    8.444997   2.533915   3.113192
H    7.914495  -0.738222   2.850028
H    4.323164   2.935330   4.922529
H    6.248531   1.256063   6.641764
H    6.219618   2.914033  -3.532125
H    8.608062   3.940098  -1.289549

