%chk=mol_2330.chk
# wB97XD/Def2SVP opt pop=full gfinput

C 6 H 8 O 1

1 2
C    1.888951  -0.190409   0.012453
C    4.693815   0.083601  -0.173609
C    5.896739   2.322360  -0.131525
C    8.717835   2.519421  -0.327319
C    9.952394  -0.015061  -0.580373
C    8.577958  -2.138244  -0.604467
O    5.984025  -2.194407  -0.404931
H    0.932712   1.643117   0.089838
H    1.386643  -1.246274   1.719084
H    1.160103  -1.217059  -1.629435
H    4.842008   4.071264   0.049832
H    9.452259   3.468630   1.359431
H    9.205952   3.680998  -1.969529
H   11.993317  -0.099211  -0.745214
H    9.346283  -4.022188  -0.781440

