%chk=mol_5344.chk
# wB97XD/Def2SVP opt freq pop=full gfinput

C 5 H 7 N 1 O 1

1 2
C    1.10362959  -0.18532993  -0.18415993
O    2.52212882  -0.17177993  -0.09050997
C    3.02997899   1.15901959   0.02417999
C    4.53596830   1.16737950   0.12727995
C    5.30646801   0.06427998   0.11644995
C    5.15748787   2.44947886   0.24321991
N    5.64562798   3.49586868   0.33653989
H    0.77455968  -1.22418952  -0.27204990
H    0.77268976   0.36233988  -1.07180953
H    0.65610975   0.24804991   0.71543974
H    2.60173893   1.62698936   0.91917962
H    2.72268891   1.73354936  -0.85836971
H    4.87064838  -0.92716962   0.02982999
H    6.38908768   0.11775996   0.19331992

