%chk=mol_5207.chk
# wB97XD/Def2SVP opt freq pop=full gfinput

C 4 H 10 N 2 O 1

1 2
C    1.49373949  -0.63498980   0.19179992
N    2.78272891  -0.02781999   0.37252986
C    3.78702879  -0.16184995  -0.56651974
O    3.71446848  -0.91014963  -1.53604937
C    5.03319836   0.68245971  -0.22265992
C    5.90433741   0.92065960  -1.44925940
N    4.61456871   1.97432923   0.38003987
H    0.94098961  -0.56824982   1.13131952
H    1.61167943  -1.68180931  -0.10104997
H    0.95753968  -0.09745996  -0.59482974
H    2.89024901   0.77876973   0.98495960
H    5.60320807   0.12070996   0.52675980
H    5.35390806   1.45455945  -2.23227906
H    6.24229765  -0.02966999  -1.87673926
H    6.79329777   1.50724947  -1.19481957
H    4.15807867   2.52892900  -0.34652987
H    5.45555782   2.49790907   0.62718982

