%chk=mol_5406.chk
# wB97XD/Def2SVP opt freq pop=full gfinput

C 4 H 6 N 2 O 1

1 2
C    1.16278946   0.08037997  -0.41954982
O    2.38131905   0.40819985  -1.08894956
C    3.01856899   1.48385942  -0.49676982
N    2.33009911   2.67130899  -0.51663983
C    4.25987864   1.28585958  -0.03124999
C    5.05235815   2.29808903   0.56448978
N    5.70525789   3.13179874   1.03873956
H    0.80481970  -0.87149972  -0.82280964
H    0.39474985   0.83729964  -0.60881978
H    1.32265949  -0.04363998   0.65725970
H    1.72824931   2.73755908  -1.33457959
H    2.91241908   3.49940872  -0.40788984
H    4.70381784   0.29989991  -0.10392997

