%chk=mol_0830.chk
# wB97XD/Def2SVP opt freq pop=full gfinput

C 4 H 8 O 2

1 2
C    3.18998861  -0.86600965  -1.11685956
O    2.54096889   0.02006999  -0.21165992
C    3.17318869   1.19746959   0.07331997
C    4.35745859   1.64915943  -0.36465988
C    4.92945814   2.97040868   0.02655999
O    6.16393757   2.74512887   0.68760973
H    2.55961895  -1.75345945  -1.22927952
H    4.15983868  -1.18764961  -0.72504973
H    3.30038857  -0.40291986  -2.10324931
H    2.54967904   1.76770926   0.75516975
H    4.96730804   1.06473958  -1.04653966
H    4.27169847   3.53629875   0.69388974
H    5.11977816   3.57701874  -0.86376965
H    5.97487783   2.16389918   1.44431937

