%chk=mol_3185.chk
# wB97XD/Def2SVP opt freq pop=full gfinput

C 6 H 8 O 1

1 2
C    1.00195968  -0.03679999   0.18775992
C    2.51999903   0.00000000   0.00000000
O    3.10829878  -0.69777972   1.09778965
C    2.90635872  -0.77824974  -1.23422956
C    3.41104889  -0.32528988  -2.39247918
C    3.00201893   1.36116946   0.00000000
C    3.39929867   2.48306894   0.00000000
H    0.47578984   0.46621981  -0.63186979
H    0.71012974   0.45191982   1.12565958
H    0.63451976  -1.06816959   0.25234991
H    3.06346869  -0.10053997   1.86258924
H    2.75532889  -1.85391927  -1.14579952
H    3.60199881   0.72751975  -2.57233906
H    3.65148878  -1.01597965  -3.19513869
H    3.76132846   3.48534870  -0.00441000

