%chk=mol_4060.chk
# wB97XD/Def2SVP opt freq pop=full gfinput

C 4 H 8 N 2 O 1

1 2
C    0.97842962  -0.01024000   0.37208986
C    2.42534900  -0.04478998  -0.09575997
C    2.81402898   1.23253953  -0.83347970
O    4.13508844   1.12950957  -1.39690948
C    4.50649834  -0.11274996  -1.80196929
N    3.84848857  -1.21882951  -1.65099943
N    2.63832903  -1.13746953  -1.04294968
H    0.81540966   0.82637972   1.06082964
H    0.71436971  -0.93394965   0.89929968
H    0.28458989   0.10778996  -0.46826982
H    3.08733892  -0.19162993   0.76636970
H    2.82102895   2.08110929  -0.14142995
H    2.11948919   1.47306943  -1.64753950
H    5.49640751  -0.08141997  -2.28040910
H    2.37107921  -2.04027939  -0.64619976

