%chk=mol_5372.chk
# wB97XD/Def2SVP opt pop=full gfinput

C 4 H 9 N 1 O 2

1 2
C    6.820645  -2.389105   0.588612
O    5.818561  -0.064591   1.497324
C    6.343395   1.989447  -0.148514
C    9.125978   2.728349  -0.221665
C   10.328374   3.577044   2.220806
N   10.320702   2.588660  -2.367903
O   12.845338   3.331549  -2.110937
H    6.133560  -3.907595   1.810717
H    8.886437  -2.371625   0.676276
H    6.188324  -2.763422  -1.344786
H    5.286717   3.628558   0.544241
H    5.653739   1.573443  -2.056816
H    8.958908   3.509883   3.765733
H   11.007750   5.518057   2.022574
H   11.910188   2.330637   2.685206
H   13.490339   3.151610  -3.828717

