%chk=mol_5837.chk
# wB97XD/Def2SVP opt freq pop=full gfinput

C 4 H 8 N 2 O 1

1 2
N    1.20349956   1.51986945  -0.48627982
C    2.41823912   1.65478945   0.08531997
N    2.63895917   2.21791911   1.21667957
O    3.40402865   1.14209962  -0.68824971
C    4.76094818   1.22898948  -0.20965992
C    5.80587769   0.70167977  -1.15498960
C    5.65963793   2.18095922  -0.94903964
H    1.25595951   1.32693946  -1.47990942
H    0.52459979   2.22757912  -0.24828991
H    1.74544942   2.49730921   1.62277949
H    4.94383812   1.07426953   0.85016972
H    5.47410774   0.28172991  -2.09675932
H    6.66967726   0.20962992  -0.72465974
H    6.41988754   2.69688892  -0.37519985
H    5.22836781   2.76885891  -1.74993932

