%chk=mol_5683.chk
# wB97XD/Def2SVP opt pop=full gfinput

C 4 H 9 N 1 O 2

1 2
N    3.824768  -0.748180  -2.389710
C    4.706798   0.408880  -0.022677
C    6.340182   2.807037  -0.364245
O    4.843368   4.879651  -1.277323
C    5.644839   6.985429   0.197873
C    6.291125   5.807431   2.700343
O    7.477552   3.483956   2.014410
H    2.890941  -2.382567  -1.987066
H    5.336360  -1.225166  -3.481934
H    5.787286  -1.001612   1.041560
H    3.045105   0.877778   1.121156
H    7.873998   2.451258  -1.710070
H    7.310727   7.813602  -0.710839
H    4.151690   8.406712   0.319704
H    7.557733   6.963546   3.849145
H    4.591203   5.359263   3.791717

