%chk=mol_6558.chk
# wB97XD/Def2SVP opt pop=full gfinput

C 3 H 6 O 3 S 1

1 2
C    1.977069   0.040591  -0.466195
C    4.688278  -0.110303   0.295629
C    5.843298  -2.258771   1.007054
S    6.424767   2.691140   0.259459
O    8.374001   2.052791  -1.996023
O    4.880936   4.779325  -0.590634
O    7.976893   2.895023   2.502149
H    0.944277   1.328421   0.780740
H    1.046946  -1.805558  -0.367212
H    1.806276   0.724578  -2.410988
H    4.833731  -4.043371   1.059891
H    7.820651  -2.292880   1.560687
H   10.046843   2.634864  -1.455883

