%chk=mol_0868.chk
# wB97XD/Def2SVP opt freq pop=full gfinput

C 4 H 6 O 2

1 2
O    0.90687966  -0.02178999   0.13980995
C    2.34276915   0.00850000   0.04551999
C    3.04724884   1.09091961   0.91104966
C    4.05740833  -0.00771000   1.29243946
O    5.18429804  -0.00515000   1.73683929
C    3.09661889  -1.11246955   0.81365967
H    0.62454975  -0.75489968  -0.43537983
H    2.64773893   0.06680997  -1.00790954
H    2.46805906   1.45998943   1.76193941
H    3.47539854   1.92639935   0.35369986
H    3.56022859  -1.87606931   0.18599993
H    2.53577900  -1.57998931   1.62782931

