%chk=mol_4074.chk
# wB97XD/Def2SVP opt pop=full gfinput

C 4 H 8 N 2 O 1

1 2
C    1.860435  -0.033788   0.016195
C    4.721859  -0.037076  -0.029385
C    5.862497   1.982587   1.673523
O    8.323809   1.115165   2.440317
N    8.241644  -1.520474   2.193216
C    5.994457  -2.251080   1.172405
N    5.113693  -4.519488   1.251301
H    1.105055  -1.478295  -1.257121
H    1.118963   1.798868  -0.591314
H    1.129149  -0.434845   1.910116
H    5.439445   0.141352  -1.964635
H    4.742721   2.298568   3.388411
H    6.063980   3.787918   0.684421
H    8.866255  -2.545442   3.691410
H    3.414187  -4.642018   0.334765

