%chk=mol_7147.chk
# wB97XD/Def2SVP opt freq pop=full gfinput

C 6 H 11 N 1

1 2
C    0.99999964   0.00000000   0.00000000
C    2.44399905   0.00000000   0.00000000
C    3.63415861   0.00000000   0.00000000
C    5.07815790   0.00000000   0.00000000
C    5.60437775  -0.69304979   1.26167953
C    5.60989761  -0.71726972  -1.24685943
N    5.55610800   1.38389945   0.00170000
H    0.60600978   1.02086961   0.01167000
H    0.60601974  -0.52055979   0.87825966
H    0.60602981  -0.50032979  -0.88993967
H    5.25396776  -0.19318992   2.17436934
H    6.70082760  -0.70543975   1.28903949
H    5.26132774  -1.73472941   1.31482959
H    5.26075792  -0.23745991  -2.17016912
H    5.27210808  -1.76080930  -1.27838957
H    6.70653772  -0.72506970  -1.26985943
H    5.21481800   1.85206938  -0.83675969
H    6.57150745   1.39523947  -0.05644998

