%chk=mol_2988.chk
# wB97XD/Def2SVP opt pop=full gfinput

C 5 H 12 O 2

1 2
C    1.832921  -0.068540   0.086701
C    4.736372   0.000189   0.008579
C    5.774569  -1.218174   2.437747
C    5.655005  -1.499649  -2.320754
O    8.337226  -1.631571  -2.456984
C    5.598635   2.781337  -0.164368
O    8.279249   2.986920  -0.334859
H    1.017107   0.777055  -1.619779
H    1.101786   0.976970   1.718876
H    1.131662  -2.013333   0.220758
H    5.136975  -0.185609   4.116768
H    7.843441  -1.249714   2.473368
H    5.121725  -3.175798   2.621976
H    4.970603  -0.636800  -4.075459
H    4.944544  -3.443686  -2.268692
H    8.953787   0.105258  -2.258790
H    4.961230   3.881403   1.470887
H    4.810468   3.677067  -1.857242
H    8.948174   2.802256   1.371525

