%chk=mol_0642.chk
# wB97XD/Def2SVP opt freq pop=full gfinput

C 5 H 10 O 1

1 2
C    1.05380964   0.05861998  -0.13371995
C    2.52988911   0.19220993  -0.01650999
O    3.26937866  -0.38591984  -1.10039961
C    3.38740873   1.03753960  -0.94411963
C    2.79738903   1.81919920  -2.07610917
C    4.73434830   1.48210943  -0.46310985
H    0.55930978   0.82204968   0.47526982
H    0.73938972  -0.92316961   0.23575991
H    0.69260979   0.15407994  -1.16144955
H    2.87826896   0.00221000   0.99098963
H    1.97029924   1.29656947  -2.56510901
H    3.55404878   2.01062918  -2.84452915
H    2.42771912   2.78398895  -1.71514928
H    5.11814785   0.83674973   0.33424988
H    4.67766857   2.50284910  -0.07163998
H    5.46001816   1.46753943  -1.28276944

