%chk=mol_5145.chk
# wB97XD/Def2SVP opt freq pop=full gfinput

C 4 H 6 N 2 O 1

1 2
C    1.50736940  -0.37140986   0.26302990
N    2.94689894  -0.28837991   0.06255998
C    3.43618894   1.08514953   0.27090991
C    4.90144777   1.19085956  -0.12981996
O    5.41174793   0.56275976  -1.05456960
C    5.66180801   2.18116903   0.60667980
N    6.23331738   2.99437904   1.21036959
H    1.17668951  -1.40300953   0.10995995
H    0.96584964   0.26494992  -0.44393983
H    1.23498952  -0.08547997   1.28394949
H    3.18258882  -0.58769977  -0.88833964
H    3.32532883   1.35339952   1.32750952
H    2.87751889   1.80180931  -0.34260985

