%chk=mol_3945.chk
# wB97XD/Def2SVP opt freq pop=full gfinput

C 5 H 11 N 1 O 1

1 2
C    0.78287971   0.20009992  -0.46938983
C    2.21315908   0.00416000  -0.03454999
C    2.49069905   0.12599996   1.45488942
C    1.60880935  -0.76915967   2.32424927
O    1.87406933  -2.14310932   2.07576919
C    3.09720874  -0.90147966  -0.87019968
N    3.23485875   0.54678982  -0.94646966
H    0.69575971   0.31062987  -1.55704939
H    0.35938987   1.09748960  -0.00774000
H    0.17300993  -0.66115975  -0.18006992
H    2.34075904   1.17095959   1.75355935
H    3.54188871  -0.11940996   1.65707934
H    0.54332978  -0.57870978   2.17105913
H    1.82913935  -0.57982981   3.37984872
H    1.55616939  -2.34367895   1.17868948
H    2.67931890  -1.37958956  -1.74816942
H    3.90934849  -1.44046950  -0.39792985
H    4.06151867   0.86331969  -0.43552986

