%chk=mol_7113.chk
# wB97XD/Def2SVP opt freq pop=full gfinput

C 6 H 5 N 1

1 2
C    0.95194966   0.09664996  -0.00606000
C    2.45226908   0.00245000  -0.00211000
C    3.12057900  -1.16598964   0.00244000
C    2.47429895  -2.43316913   0.00251000
C    1.93380928  -3.50438857   0.00094000
C    3.20221877   1.21826959  -0.00227000
N    3.81333852   2.20370913  -0.00222000
H    0.61582977   1.13950956   0.01109000
H    0.52758980  -0.39514983   0.87578970
H    0.53565979  -0.36467987  -0.90795964
H    4.20915842  -1.17726958   0.00572000
H    1.45375955  -4.45594835  -0.00006000

