%chk=mol_6774.chk
# wB97XD/Def2SVP opt pop=full gfinput

C 5 H 10 N 2

1 2
C    1.656496  -0.305323  -0.212859
C    4.470941   0.199461  -0.144885
C    5.404125   2.256390   1.701320
N    7.685629   0.657285   2.160259
C    6.102134  -1.582230   1.491825
N    8.578601   0.683986   4.556583
C   10.882215   1.474686   4.652109
H    1.251320  -2.020552  -1.296050
H    0.658173   1.266438  -1.114372
H    0.875208  -0.551158   1.687563
H    5.237338   0.443141  -2.061143
H    4.202883   2.541323   3.368531
H    5.805295   4.095093   0.846087
H    7.105540  -3.062736   0.454895
H    5.108289  -2.444965   3.095806
H   11.851701   1.593606   6.490170
H   11.980126   2.057685   2.974448

