%chk=mol_3642.chk
# wB97XD/Def2SVP opt pop=full gfinput

C 6 H 8 O 1

1 2
O    3.246795  -0.460073   2.346454
C    4.572892  -0.027174   0.052194
C    5.609671   2.587035   0.046242
C    8.034189   3.323027  -0.179165
C    8.194363   6.154101  -0.121547
C    5.473592   6.890867   0.158756
C    4.029066   4.811904   0.254111
H    2.660357  -2.197582   2.293787
H    3.266524  -0.291811  -1.530206
H    6.085315  -1.430844  -0.102952
H    9.645163   2.085823  -0.369933
H    8.992602   6.892719  -1.879200
H    9.316652   6.805905   1.487063
H    4.799602   8.810583   0.291585
H    2.002883   4.751716   0.488608

