%chk=mol_5206.chk
# wB97XD/Def2SVP opt freq pop=full gfinput

C 4 H 8 N 2 O 1

1 2
C    1.24003959  -0.37043986  -0.20102991
N    2.66079903  -0.16697994  -0.08114997
C    3.19162893   1.10007966  -0.10770996
O    2.53097892   2.11803913  -0.26499990
C    4.66465807   1.11203969   0.07390997
C    5.31952810   2.27546906   0.15332994
N    6.67190742   2.45127916   0.31333989
H    1.04264963  -1.44299948  -0.26134989
H    0.87236965   0.12888995  -1.10156953
H    0.74355972   0.05218998   0.67644978
H    3.24931884  -0.96296966   0.12015995
H    5.18762779   0.16868994   0.13958995
H    4.77598858   3.22039866   0.10019996
H    7.24007750   1.64610934   0.06435998
H    7.02105713   3.32066870  -0.08584997

