%chk=mol_1816.chk
# wB97XD/Def2SVP opt freq pop=full gfinput

C 5 H 10 N 2

1 2
C    0.94945967   0.02579999   0.13829994
N    2.25273895  -0.34499988  -0.39644986
C    2.63112903  -1.66947937  -0.37732986
N    3.78936863  -2.19040918  -0.58219975
C    3.30340886   0.68479973  -0.30682990
C    4.17119837   1.01686966  -1.49224949
C    3.16562891   2.01348925  -1.00327969
H    0.67006975   1.04088962  -0.16158995
H    0.95785964  -0.02252999   1.23219955
H    0.17038994  -0.64785975  -0.23492992
H    1.79067922  -2.34993911  -0.15495995
H    4.45473814  -1.44307947  -0.79281974
H    3.78092861   0.69607973   0.67094976
H    3.96909857   0.51512980  -2.43187904
H    5.21992779   1.22011960  -1.31143951
H    3.53175879   2.89414907  -0.48887980
H    2.29880929   2.19095922  -1.62846935

