%chk=mol_2984.chk
# wB97XD/Def2SVP opt pop=full gfinput

C 5 H 8 O 2

1 2
C    1.447058   0.140388   0.617430
C    3.898694  -1.288094   0.519580
C    3.673287  -4.109946   0.731041
C    6.110978  -0.074361   0.260026
O    8.427536  -1.333750   0.169282
C   10.520294   0.159531  -0.070921
O   10.625439   2.460688  -0.223063
H    1.725320   2.182086   0.423828
H    0.491990  -0.197741   2.421419
H    0.197476  -0.471562  -0.913966
H    2.475919  -4.846335  -0.786674
H    2.819963  -4.622969   2.545518
H    5.499537  -5.069795   0.603956
H    6.250137   1.963974   0.108187
H   12.192192  -1.080149  -0.109547

