%chk=mol_5711.chk
# wB97XD/Def2SVP opt freq pop=full gfinput

C 5 H 11 N 1 O 1

1 2
N    1.95834923  -0.51704979   1.58047938
C    2.10393929  -0.05313998   0.19727993
C    3.40177870   0.73558974  -0.02972999
C    4.66252804  -0.09683996   0.08902997
C    5.25647783  -0.62166977  -0.99791962
C    5.25913811  -0.25610989   1.46277952
O    4.56539822  -1.25113952   2.19442916
H    1.10583961  -1.07845962   1.64678943
H    1.79973936   0.28860989   2.18900919
H    1.24692953   0.58438981  -0.04863998
H    2.06876922  -0.91746968  -0.47531983
H    3.45403886   1.58770943   0.65945977
H    3.35428858   1.17855954  -1.03389955
H    4.83965826  -0.49928981  -1.99234927
H    6.16371775  -1.21249950  -0.91282964
H    5.21702814   0.68699974   2.01695919
H    6.31149769  -0.55135977   1.41254950
H    3.60820866  -1.12726963   2.00620937

