%chk=mol_3753.chk
# wB97XD/Def2SVP opt freq pop=full gfinput

C 5 H 10 O 2

1 2
O    2.79354906   2.56793880   2.05816913
C    2.59120893   1.27313948   1.49207938
C    3.11968875   1.22726953   0.05848997
C    4.63200808   1.28743947  -0.03220999
C    5.36634827   0.17373993  -0.18906993
C    5.26859808   2.65410900  -0.01385999
O    5.29614782   3.16590881   1.30611944
H    2.43587899   2.53019905   2.96496868
H    1.51412940   1.07426953   1.49397945
H    3.08601880   0.52976978   2.12463927
H    2.69497895   2.05345917  -0.52496982
H    2.76367903   0.30166987  -0.41093984
H    4.91222811  -0.81183970  -0.22360992
H    6.44910765   0.21820992  -0.26789990
H    4.72107792   3.35071874  -0.65731978
H    6.30050755   2.62135887  -0.38116986
H    4.37581825   3.11359906   1.63958931

