%chk=mol_4174.chk
# wB97XD/Def2SVP opt freq pop=full gfinput

C 4 H 5 N 1 O 2

1 2
C    1.04427958   0.00007000   0.09101997
C    2.52501917   0.01109000  -0.06890997
N    3.23455882  -1.05017960  -0.25831991
O    4.59824800  -0.63688976  -0.36862984
C    4.67744827   0.72953969  -0.23989990
O    5.70331764   1.39050949  -0.29151988
C    3.30711889   1.26177955  -0.02648999
H    0.66247976  -1.02340961   0.04922998
H    0.58945978   0.58689982  -0.71132970
H    0.77979976   0.44417983   1.05411959
H    3.01021886   1.92393935  -0.84108967
H    3.21650863   1.73365939   0.95302963

