%chk=mol_0196.chk
# wB97XD/Def2SVP opt freq pop=full gfinput

C 4 H 8 O 1

1 2
C    1.02551961  -0.05856998   0.10878996
C    2.51900911   0.12562996  -0.05452998
C    3.20062876   1.14220965   0.86934972
C    4.12534857  -0.01841999   1.22795951
O    3.25358891  -0.96548963   0.56399977
H    0.67772973  -0.92037964  -0.46976981
H    0.48835981   0.82502967  -0.24976991
H    0.75090969  -0.22124992   1.15605962
H    2.81096888   0.22605991  -1.10760963
H    2.59049916   1.50417948   1.70200932
H    3.68138862   1.98381925   0.36569986
H    5.11366796   0.00456000   0.75918972
H    4.22089863  -0.22880992   2.29603910

