%chk=mol_5489.chk
# wB97XD/Def2SVP opt freq pop=full gfinput

C 4 H 8 N 2 O 1

1 2
N    0.91282964  -0.01446999  -0.37542987
C    2.31974912   0.03320999   0.02070999
C    3.29797864  -0.81416970  -0.73895973
C    3.33168888   0.68687975  -0.89012969
C    4.38376808   1.56382942  -0.31753987
N    5.22520828   1.03305960   0.61404979
O    4.48182821   2.73153901  -0.66786975
H    0.44747984   0.86890972  -0.16286995
H    0.40853986  -0.73145974   0.14591995
H    2.48374915   0.13523996   1.09154963
H    2.93285894  -1.38697958  -1.58576941
H    4.07224846  -1.32712948  -0.18556993
H    2.95834875   1.06461966  -1.83894932
H    5.16857815   0.08462997   0.94769961
H    5.93453741   1.64362943   0.99666965

