%chk=mol_6435.chk
# wB97XD/Def2SVP opt pop=full gfinput

C 6 H 8 S 1

1 2
C    1.616944  -0.004290  -0.006104
C    4.439061   0.015968  -0.007899
C    6.078588   2.061105  -0.002324
C    5.299170   4.773410   0.007238
C    8.659822   1.234671  -0.007408
C    8.885756  -1.354953  -0.016573
S    6.014224  -2.815012  -0.019370
H    0.843744   1.913159   0.016913
H    0.894880  -0.991048   1.663394
H    0.893444  -0.951987  -1.697390
H    6.943950   6.028642   0.016667
H    4.167111   5.194139   1.687242
H    4.175426   5.207953  -1.674827
H   10.278277   2.489261  -0.004573
H   10.605011  -2.459120  -0.021883

