%chk=mol_6250.chk
# wB97XD/Def2SVP opt freq pop=full gfinput

C 5 H 11 N 1 O 1

1 2
O    2.58304906  -0.59166974  -1.00682962
C    2.13896918   0.21738991   0.08318996
C    2.67098904   1.64555943  -0.07635997
N    4.13772869   1.65424943   0.01998999
C    4.66996813   2.98401880  -0.25250992
C    6.16308784   2.94943881  -0.14276995
C    7.00579739   3.33039880  -1.11104965
H    2.31542921  -1.50418937  -0.80195969
H    2.48622894  -0.23001991   1.02091956
H    1.04443955   0.22246993   0.07950997
H    2.24149919   2.28108931   0.70474970
H    2.36300898   2.02999926  -1.05560958
H    4.49069786   1.00082958  -0.68471974
H    4.28959846   3.69834876   0.48607981
H    4.36211824   3.32953882  -1.24618959
H    6.56994772   2.59484911   0.80225968
H    6.64750767   3.69443846  -2.06937933
H    8.07999706   3.28160858  -0.96202964

