%chk=mol_6285.chk
# wB97XD/Def2SVP opt pop=full gfinput

C 4 H 4 N 2 O 1

1 2
O    5.311283  -1.994436   0.039363
C    4.142809   0.002268   0.000397
N    5.467356   2.270204   0.007219
C    4.441480   4.660613  -0.032239
C    6.466076   6.289028  -0.006652
N    8.695178   4.979315   0.047092
C    8.042864   2.580837   0.054292
H    2.063921   0.109585  -0.040535
H    2.426049   4.986912  -0.073775
H    6.437503   8.335393  -0.024075
H    9.327442   0.987987   0.092162

