%chk=mol_1164.chk
# wB97XD/Def2SVP opt freq pop=full gfinput

C 6 H 12

1 2
C    1.42865944  -0.74659967   0.26185989
C    2.91949892  -0.48083985   0.12343995
C    3.20736885   1.00841963  -0.06789998
C    4.68229818   1.26383948  -0.19643992
C    5.25992775   1.78505933  -1.29037952
C    6.72635746   2.03927922  -1.41851938
H    1.24459946  -1.81895936   0.38092986
H    0.88478965  -0.40510985  -0.62462974
H    1.01845968  -0.23226991   1.13680959
H    3.30707884  -1.05032969  -0.73015976
H    3.43376875  -0.85276973   1.01809967
H    2.83039904   1.57442939   0.79244971
H    2.67121911   1.37754953  -0.95071965
H    5.29464817   1.00867963   0.66622972
H    4.65007830   2.04520917  -2.15271926
H    7.27846766   1.74220932  -0.52113980
H    6.90619755   3.10423875  -1.59374940
H    7.12843752   1.47778940  -2.26743913

