%chk=mol_4274.chk
# wB97XD/Def2SVP opt pop=full gfinput

C 5 H 11 N 1 O 1

1 2
C    4.478972  -0.863095  -2.874878
C    4.590580   0.121283  -0.176670
C    6.293393   2.436726   0.011168
N    5.146726   4.762299  -1.063670
C    6.113604   6.227460   1.106000
C    6.377013   3.756454   2.630707
O    8.646971   3.436165   4.110608
H    3.307361  -2.564944  -2.969969
H    6.369114  -1.340402  -3.569145
H    3.670056   0.545394  -4.156282
H    5.336379  -1.375645   1.045812
H    2.673414   0.540670   0.488475
H    8.189525   2.061578  -0.749239
H    3.219319   4.715075  -1.146100
H    7.902665   7.194036   0.713466
H    4.777114   7.604352   1.875213
H    4.709500   3.374125   3.803868
H   10.027643   3.828169   2.960653

