%chk=mol_0256.chk
# wB97XD/Def2SVP opt pop=full gfinput

C 5 H 11 N 1

1 2
C    1.814250  -0.023924   0.048812
C    4.679264  -0.057145   0.069240
C    5.983893   1.945794   1.773791
C    7.999740  -0.082619   2.371852
C    5.945570  -2.071782   1.786075
N    7.020597  -4.078350   0.234723
H    1.075613  -1.666360  -0.969959
H    1.112822   1.678266  -0.896127
H    1.034549  -0.057656   1.966109
H    5.419300   0.006860  -1.873002
H    4.877893   2.523710   3.427415
H    6.675439   3.634151   0.805836
H    9.615871  -0.024075   1.071607
H    8.711486  -0.075476   4.311977
H    4.848338  -2.696356   3.424297
H    8.081130  -3.474035  -1.255591
H    5.698601  -5.267498  -0.506258

