%chk=mol_6516.chk
# wB97XD/Def2SVP opt pop=full gfinput

C 5 H 3 N 1 S 1

1 2
C    1.731783   0.033996  -0.007446
C    4.000267   0.071885  -0.003288
C    6.696679   0.115217   0.001682
C    8.112198   2.300326   0.003987
S   11.248405   1.496644   0.009864
N   10.789089  -1.608856   0.009430
C    8.309542  -2.038145   0.004932
H   -0.281002  -0.000265  -0.011112
H    7.500077   4.247991   0.002608
H    7.703563  -3.992065   0.004082

