%chk=mol_3824.chk
# wB97XD/Def2SVP opt freq pop=full gfinput

C 5 H 9 N 1 O 1

1 2
C   -1.49550951   0.78605968   0.15775993
C   -1.34216952  -0.71211976  -0.12942995
C    0.03060999  -1.21528959   0.19422992
O    0.99765962  -0.96275967  -0.84467965
C    1.15735960  -0.23776992   0.38002986
C    0.87214971   1.23031950   0.33835989
N   -0.37154987   1.56759942  -0.35972986
H   -2.42220902   1.13972962  -0.30908990
H   -1.60177946   0.95671964   1.23672950
H   -1.56427944  -0.91717964  -1.18365955
H   -2.08003926  -1.26342952   0.46404985
H    0.05604998  -2.18304920   0.67042977
H    1.99909925  -0.49588981   1.00567961
H    0.82348973   1.60652947   1.36650956
H    1.70633936   1.74533939  -0.15103994
H   -0.55816978   2.56200910  -0.24482991

