%chk=mol_7151.chk
# wB97XD/Def2SVP opt freq pop=full gfinput

C 6 H 11 N 1

1 2
C    0.99999964   0.00000000   0.00000000
C    2.44399905   0.00000000   0.00000000
C    3.63415861   0.00000000   0.00000000
C    5.07815790   0.00000000   0.00000000
C    5.67355776   1.42353940  -0.01736999
C    5.37008810   2.19413924   1.27186954
N    7.13040781   1.36019945  -0.20295992
H    0.60612977   1.02090967   0.01373999
H    0.60594976  -0.52219981   0.87725967
H    0.60588974  -0.49848980  -0.89091969
H    5.43175793  -0.54686975  -0.88359970
H    5.45258808  -0.55004978   0.87260967
H    5.25216818   1.98013926  -0.86317968
H    5.75736761   1.66995931   2.15282917
H    4.29256868   2.33249927   1.40738952
H    5.82355785   3.19189882   1.24678957
H    7.56123686   0.90658963   0.60197973
H    7.50966692   2.30614901  -0.22615992

