%chk=mol_6275.chk
# wB97XD/Def2SVP opt pop=full gfinput

C 4 H 5 N 1 O 2

1 2
O    2.670353  -0.235101   0.802415
C    4.951101   0.164236   0.781156
N    6.053379   2.501978   0.723519
C    4.748126   4.918334   0.356024
C    7.077875   5.809699  -1.135725
C    8.000382   3.071561  -0.859674
O    9.797455   1.850080  -1.561443
H    6.348610  -1.380785   0.676824
H    4.401494   5.920380   2.128984
H    3.004891   4.769385  -0.744779
H    6.711343   6.388389  -3.082294
H    8.280383   7.189293  -0.178787

