%chk=mol_6278.chk
# wB97XD/Def2SVP opt pop=full gfinput

C 5 H 7 N 1 O 1

1 2
O    5.277098  -1.849494  -0.149761
C    4.473605   0.240865   0.431878
N    5.661865   2.482458  -0.038834
C    8.075858   2.616685  -1.317857
C    8.544642   5.395565  -1.365289
C    6.656107   6.669694  -0.263976
C    4.658326   4.923738   0.675237
H    2.655292   0.484280   1.420431
H    7.909430   1.810471  -3.213782
H    9.503168   1.592586  -0.228695
H   10.209000   6.240102  -2.192290
H    6.569236   8.699826  -0.069391
H    4.430085   5.007661   2.727555
H    2.837632   5.225414  -0.254924

