%chk=mol_5115.chk
# wB97XD/Def2SVP opt freq pop=full gfinput

C 6 H 11 N 1

1 2
C    1.06975961  -0.08677997  -0.00831000
C    2.55462885   0.12210996  -0.05701998
C    3.45792866  -0.59102976  -1.10754955
C    4.48118830  -0.28954989   0.02559999
C    4.57355833   1.23131955   0.11318996
C    3.07914901   1.55338943   0.05408998
N    3.34780884  -0.67708975   0.97353959
H    0.63847977   0.32562986   0.91039968
H    0.80959970  -1.15022957  -0.05137998
H    0.58024979   0.40499985  -0.85562968
H    3.61039853  -0.08101998  -2.06311917
H    3.24553871  -1.65014946  -1.29702950
H    5.39103842  -0.88709968   0.08155997
H    5.03010798   1.56836939   1.04918957
H    5.12166786   1.66342938  -0.72972971
H    2.82453895   2.16230917  -0.81913972
H    2.73597884   2.06143928   0.96135962
H    3.13566875  -1.67563939   0.98083961

