%chk=mol_6797.chk
# wB97XD/Def2SVP opt freq pop=full gfinput

C 7 H 8

1 2
C    0.98097962  -1.36739945   0.09570996
C   -0.50528979  -1.51192939   0.01595999
C   -1.48680949  -0.60542977  -0.03216999
C   -1.39330947   0.82774967   0.00156000
C   -0.30399987   1.60023940   0.00156000
C    1.07919955   1.21357954  -0.03261999
C    1.60992932  -0.01271000   0.01554999
H    1.40563941  -1.96695924  -0.71983969
H    1.31472957  -1.83804929   1.02884960
H   -0.82300967  -2.55499911  -0.00539000
H   -2.50929904  -0.97912961  -0.08899996
H   -2.35915899   1.33202946   0.02731999
H   -0.46053982   2.67875910   0.02711999
H    1.77056932   2.05505919  -0.08982997
H    2.69953895  -0.05867998  -0.00637000

