%chk=mol_2503.chk
# wB97XD/Def2SVP opt pop=full gfinput

C 5 H 8 O 2

1 2
C    1.910400   0.006236   0.111607
C    4.730249   0.055671  -0.086398
C    6.034708   2.221732  -0.171077
O    8.615186   2.367468  -0.294287
C    9.810570  -0.031029   0.076099
O    8.594361  -2.066359  -1.194458
C    6.098826  -2.417205  -0.241904
H    1.198502  -1.930941   0.234383
H    1.047948   0.889211  -1.549424
H    1.279685   1.008925   1.808241
H    5.193856   4.085758  -0.163688
H   11.733310   0.116237  -0.670116
H    9.961862  -0.432048   2.106251
H    6.188154  -3.327241   1.615527
H    5.133989  -3.703240  -1.543472

