%chk=mol_3130.chk
# wB97XD/Def2SVP opt pop=full gfinput

C 5 H 12 O 2

1 2
C   -1.259068   9.523596  -0.207605
C   -0.242849   7.719248   1.777590
C    0.866439   5.337853   0.596341
O    1.827214   3.791131   2.582689
C    2.925636   1.524140   1.646122
O    5.171651   1.952786   0.227863
C    7.130712   2.980004   1.754138
H   -2.051071  11.206983   0.694304
H   -2.750969   8.630890  -1.327041
H    0.243321  10.130709  -1.492260
H   -1.753855   7.198553   3.097204
H    1.205116   8.668684   2.915205
H   -0.598401   4.306327  -0.443027
H    2.392677   5.842920  -0.708874
H    1.568851   0.527668   0.440854
H    3.341414   0.284328   3.251387
H    8.835604   3.129443   0.598249
H    7.532562   1.747524   3.363032
H    6.625247   4.873207   2.412500

