%chk=mol_6401.chk
# wB97XD/Def2SVP opt freq pop=full gfinput

C 4 H 8 N 2 O 1

1 2
O    0.93772966   2.79200912   0.58716983
N    2.11715913   2.12807918   0.93503970
C    2.85827875   1.70338929  -0.14845996
N    2.38780928   1.65278935  -1.35533941
C    4.30691814   1.29161954   0.09300996
C    5.16735840   2.52077889   0.07498997
C    5.91786766   2.94311881   1.10161960
H    0.25893989   2.09637928   0.68780971
H    2.65588903   2.59365892   1.66690946
H    1.43213952   2.02267909  -1.30394959
H    4.62717867   0.60313976  -0.69601977
H    4.37148809   0.76437974   1.05164957
H    5.17182779   3.08928895  -0.85406965
H    5.96036768   2.40610909   2.04351926
H    6.52313757   3.84036851   1.00885963

