%chk=mol_5396.chk
# wB97XD/Def2SVP opt pop=full gfinput

C 4 H 9 N 1 O 2

1 2
C    6.528021  -2.153381   0.215372
O    8.254418  -0.114839   0.495864
C    7.096640   2.250910  -0.133793
C    9.059083   4.355800   0.136438
N    9.845019   4.698143   2.742805
C    8.466483   6.130536   4.398696
O    6.591837   7.370102   3.864395
H    7.491385  -3.901869   0.752451
H    5.917243  -2.316237  -1.753836
H    4.890214  -1.896076   1.452443
H    5.480565   2.584446   1.119285
H    6.432855   2.180328  -2.094516
H    8.283161   6.139474  -0.569790
H   10.765637   3.891797  -0.936038
H   11.130166   3.467742   3.446048
H    9.240515   6.045290   6.331584

