%chk=mol_5607.chk
# wB97XD/Def2SVP opt freq pop=full gfinput

C 4 H 5 N 1 O 2

1 2
N    0.99658966  -0.06915998   0.13573995
C    2.32511902   0.08085997   0.07550997
C    3.14755869   1.18183947   0.02589999
O    2.71194887   2.45300913   0.02378999
C    4.47467804   0.71179974  -0.02455999
C    4.37577820  -0.66269976  -0.00998000
O    3.07223892  -1.05305958   0.04592998
H    0.41268986   0.72831976  -0.09232996
H    0.60505974  -0.97199965  -0.10540996
H    3.46906853   3.06160879   0.00821000
H    5.39053822   1.28164947  -0.06843998
H    5.09810781  -1.46657944  -0.03380999

