%chk=mol_4553.chk
# wB97XD/Def2SVP opt freq pop=full gfinput

C 5 H 13 N 1 O 1

1 2
C    0.96303964  -0.13926995  -0.01549999
C    2.47700906  -0.02738999  -0.00492000
C    2.93724895   1.42449939  -0.00186000
O    4.36375809   1.44306946   0.02311999
C    4.87021780   2.78406906   0.01911999
C    6.40262747   2.74034905   0.02990999
N    6.92579699   2.13314915  -1.19702959
H    0.65968972  -1.19117951  -0.02132999
H    0.54002976   0.34093988  -0.90382963
H    0.52859980   0.33418989   0.87069970
H    2.89462900  -0.54351979  -0.87776971
H    2.88211894  -0.54439980   0.87336963
H    2.55024886   1.94300926   0.88261968
H    2.57946897   1.93670928  -0.90213966
H    4.51442814   3.30518889   0.91575968
H    4.50737810   3.31619883  -0.86897963
H    6.74282742   2.14502931   0.88389969
H    6.80529737   3.75269842   0.12980995
H    6.42696762   1.25053942  -1.33521950
H    7.90344715   1.88644934  -1.05712962

