%chk=mol_2514.chk
# wB97XD/Def2SVP opt pop=full gfinput

C 5 H 10 O 2

1 2
C    2.189229  -0.200878  -0.362487
C    4.954900   0.289298  -0.247384
O    6.327975  -0.439021  -2.462748
C    6.289557   2.226022  -1.898060
C    4.876533   3.775654  -3.799351
C    8.814647   3.231054  -1.074612
O   10.615895   2.850916  -3.032500
H    1.159271   1.307331   0.605260
H    1.751077  -1.985838   0.585626
H    1.483057  -0.337222  -2.300401
H    5.752119  -0.163442   1.582154
H    3.328979   2.729766  -4.685595
H    6.137377   4.400416  -5.315856
H    4.080467   5.454694  -2.892056
H    9.507005   2.276364   0.624781
H    8.704551   5.254799  -0.665297
H   10.391037   1.106964  -3.585434

