%chk=mol_3148.chk
# wB97XD/Def2SVP opt freq pop=full gfinput

C 6 H 12 O 1

1 2
C    3.00106883   3.60952854   2.43702912
C    4.28088808   3.14219904   1.77239943
O    4.00236845   1.93896925   1.05809963
C    5.13028812   1.39948952   0.33651990
C    6.12290812   0.65916973   1.17724955
C    4.77526808   0.83198965  -1.01392961
C    5.55467796   2.11220932  -0.92088962
H    3.16805887   4.53286839   2.99814892
H    2.62051892   2.84407878   3.12067890
H    2.22070909   3.78609872   1.68933940
H    5.04460812   2.95554900   2.53368902
H    4.64296818   3.91166854   1.08259964
H    6.91676712   0.21125992   0.56980979
H    5.62650776  -0.14504994   1.72924936
H    6.59929752   1.32891953   1.89988923
H    3.73875856   0.88767970  -1.32783949
H    5.29238796  -0.05602998  -1.35778952
H    6.60162783   2.08978915  -1.19795954
H    5.04394817   3.02676868  -1.19601953

