%chk=mol_2890.chk
# wB97XD/Def2SVP opt freq pop=full gfinput

C 5 H 6 O 2

1 2
C    0.99099964  -0.05480998   0.01091000
C    2.51205921   0.02806999  -0.04943998
C    3.03250885  -0.74951971  -1.19622958
C    3.45416880  -1.39171946  -2.11973929
C    2.92581892   1.49301946  -0.06189998
O    3.08670878   2.05084920  -1.28450954
O    3.03507876   2.16061926   0.95901966
H    0.60284978   0.49322981   0.87654966
H    0.65465975  -1.09454954   0.08954997
H    0.53129983   0.37837988  -0.88531971
H    2.93353891  -0.40832987   0.86500967
H    3.83138847  -1.97437918  -2.92992878
H    2.95477891   1.43248951  -2.02863932

