%chk=mol_2563.chk
# wB97XD/Def2SVP opt pop=full gfinput

C 6 H 10 O 1

1 2
C    2.042529   0.370878   0.004365
C    4.863739  -0.130882   0.322142
O    6.301594   2.060217  -0.383728
C    6.699212   2.282676  -3.044821
C    8.252793   0.061416  -4.043844
C    7.265147  -2.405149  -3.066837
C    5.687396  -2.468833  -1.082171
H    1.509192   2.125073   0.965083
H    0.914306  -1.178358   0.785635
H    1.520455   0.597135  -1.986178
H    5.242081  -0.425793   2.336968
H    7.717774   4.051592  -3.385766
H    4.878800   2.433722  -4.021621
H   10.224325   0.248726  -3.438149
H    8.223691   0.074021  -6.112962
H    7.867024  -4.137461  -3.983618
H    4.984814  -4.271631  -0.396502

