%chk=mol_3182.chk
# wB97XD/Def2SVP opt pop=full gfinput

C 6 H 10 O 1

1 2
C    0.517426  -0.095563   2.000634
C    3.163893  -1.107965   1.716438
O    3.662743  -3.316677   2.240667
C    5.130795   0.749900   0.769931
C    7.747310  -0.449509   0.562685
C    9.664343   1.421698  -0.381214
C   11.685462   2.165645   0.945789
H    0.497395   1.397018   3.426999
H   -0.749276  -1.614242   2.599545
H   -0.141257   0.641090   0.187121
H    5.180590   2.349308   2.084821
H    4.512571   1.441237  -1.082227
H    7.687312  -2.053301  -0.749276
H    8.315173  -1.217116   2.403580
H    9.382660   2.170407  -2.275533
H   12.061649   1.450270   2.830696
H   13.021366   3.508201   0.158302

