%chk=mol_6356.chk
# wB97XD/Def2SVP opt freq pop=full gfinput

C 4 H 7 N 1 O 2

1 2
O    1.12510955   0.98708963   1.38700938
N    2.51146889   0.81376970   1.31854951
C    2.91931891   1.19295955   0.15051995
C    4.37697840   1.14995956  -0.21060993
C    4.96668816   2.52147913  -0.20310992
C    6.00864792   2.93577886  -1.20727956
O    4.63148832   3.31845856  -1.34671950
H    0.92253971   0.71312970   2.30077910
H    2.22556901   1.59106934  -0.61105978
H    4.46123838   0.68419975  -1.19869947
H    4.91251802   0.51951981   0.50695980
H    4.95807838   2.99340868   0.77138972
H    6.39522791   2.20241928  -1.90396929
H    6.71310759   3.70988846  -0.92750967

