%chk=mol_0081.chk
# wB97XD/Def2SVP opt pop=full gfinput

C 4 H 6 O 1

1 2
O    4.375547  -1.830729  -0.553765
C    3.926019   0.369593   0.001625
C    5.974974   2.268503   0.107922
C    6.660717   3.734155  -2.238437
C    5.388478   5.052372  -0.070751
H    2.002165   1.024061   0.463285
H    7.530880   1.722599   1.328232
H    5.576449   3.404247  -3.946296
H    8.645931   4.115956  -2.574979
H    6.512998   6.341033   1.058719
H    3.445065   5.647503  -0.326790

