%chk=mol_5887.chk
# wB97XD/Def2SVP opt freq pop=full gfinput

C 4 H 5 N 1 O 2

1 2
N    1.38685942   0.04909998   1.08373952
C    2.56543899  -0.21356991   0.47791982
O    2.79172897  -1.25252950  -0.11891995
O    3.40547872   0.82556969   0.64858973
C    4.69799852   0.68866974   0.04780998
C    4.95891809   1.86355937  -0.79507971
C    5.16710806   2.81824899  -1.49242938
H    1.24314952   0.93461967   1.54404938
H    0.64145976  -0.62769973   1.02006960
H    4.80969810  -0.22599991  -0.54394978
H    5.43125772   0.64692974   0.86066967
H    5.34667778   3.66448855  -2.11623931

