%chk=mol_5978.chk
# wB97XD/Def2SVP opt pop=full gfinput

C 4 H 5 N 1 O 2

1 2
O    1.736280  -0.174932  -0.099759
N    4.360826  -0.083998  -0.038437
C    5.807620   2.046460  -0.023659
C    8.301189   1.278702   0.022544
C    8.318499  -1.405484   0.035319
C    5.839292  -2.204989  -0.000283
O    4.857975  -4.518033  -0.006973
H    1.339759   1.597026   0.151348
H    4.985589   3.914832  -0.052799
H    9.934328   2.510312   0.040043
H    9.953981  -2.632162   0.063495
H    3.022201  -4.310446  -0.054122

