%chk=mol_5578.chk
# wB97XD/Def2SVP opt pop=full gfinput

C 5 H 9 N 1 O 1

1 2
N    1.994322   0.067879   1.147083
C    4.571928   0.001739   0.115632
C    5.119873   2.253423  -1.637467
O    7.658285   2.239061  -2.598695
C    8.468316  -0.067558  -3.442439
C    7.334235  -2.279085  -2.977245
C    5.038728  -2.470250  -1.341460
H    1.763020   1.662978   2.203364
H    1.744746  -1.416917   2.349175
H    5.909400   0.076213   1.700149
H    4.877043   4.031976  -0.605034
H    3.808403   2.295337  -3.244773
H   10.190877   0.117957  -4.533037
H    8.106850  -4.010112  -3.769664
H    3.416455  -2.937919  -2.547049
H    5.271769  -4.027384   0.003364

