%chk=mol_6083.chk
# wB97XD/Def2SVP opt pop=full gfinput

C 4 H 6 N 2 O 1

1 2
O    1.757861  -0.053101   0.014702
C    4.076536  -0.040988   0.007049
N    5.407659   2.156196   0.005537
C    8.123876   2.358397  -0.065517
C    9.362270  -0.170359  -0.018784
C    8.031449  -2.314291   0.012000
N    5.457397  -2.217518   0.009619
H    4.339208   3.737859  -0.004271
H    8.709955   3.485354   1.566129
H    8.632912   3.383876  -1.787530
H   11.411301  -0.233684  -0.019048
H    8.897171  -4.170285   0.036491
H    4.428214  -3.830494   0.024226

