%chk=mol_4127.chk
# wB97XD/Def2SVP opt freq pop=full gfinput

C 5 H 8 N 2

1 2
C    0.71990973  -0.06668998   0.04201999
C    2.13454914   0.42359984  -0.04570998
C    0.99262959   1.38884938  -0.23911990
C    0.71796978   2.42582893   0.79018974
C    0.26965988   3.51688862  -0.11951996
N    0.24987991   3.22130895  -1.37946951
N    0.74746972   1.95858932  -1.57283938
H    0.34247988  -0.34533986   1.01907957
H    0.35450986  -0.69362974  -0.76314974
H    2.71889877   0.14647993  -0.91617966
H    2.71183896   0.48046982   0.86916965
H    1.60157943   2.74782896   1.34640944
H   -0.09333996   2.16363907   1.47407949
H   -0.04632998   4.48986864   0.28074989
H    0.11338995   1.40701938  -2.15422916

