%chk=mol_6020.chk
# wB97XD/Def2SVP opt pop=full gfinput

C 4 H 7 N 1 O 2

1 2
O    1.768784   0.127594  -0.236254
C    4.435962   0.051136   0.158094
C    5.588809   2.549656  -0.658948
C    6.894156   2.231842  -3.184548
O    8.626618   0.178182  -2.940981
N    7.383595  -2.174470  -2.800933
C    5.436043  -2.189777  -1.309410
H    1.044263   1.133930   1.122308
H    4.752472  -0.309915   2.170880
H    4.186858   4.067976  -0.750694
H    7.014682   3.091856   0.745270
H    7.976704   3.931481  -3.656393
H    5.564714   1.869468  -4.730854
H    4.427137  -3.993785  -1.047230

