%chk=mol_5047.chk
# wB97XD/Def2SVP opt freq pop=full gfinput

C 5 H 11 N 1 O 1

1 2
C    1.42467952   0.13732995  -0.84904963
N    2.85374904   0.39438984  -0.95213968
C    3.47876883   0.44426984   0.37764984
C    4.97193813   0.79372966   0.29586989
C    5.88278818  -0.06404997  -0.58970976
C    6.01992798   1.19124961  -1.44388950
O    5.21021795   1.96901929  -0.53121984
H    0.98270965   0.12737995  -1.85073924
H    0.91495967   0.91092968  -0.26462990
H    1.23233962  -0.84032965  -0.39467984
H    3.00332904   1.30510950  -1.39442945
H    3.36829877  -0.52523977   0.87724972
H    2.97729897   1.19796956   0.99673963
H    5.38717794   0.95073968   1.30018961
H    5.41182756  -0.91441965  -1.08939958
H    6.80922699  -0.38869983  -0.10778996
H    7.03397703   1.59243941  -1.52428937
H    5.56233788   1.13569963  -2.43592906

