%chk=mol_2621.chk
# wB97XD/Def2SVP opt pop=full gfinput

C 7 H 12

1 2
C    1.523724   1.080791  -1.836228
C    4.333426   1.323791  -1.696974
C    5.551279   2.743712   0.017064
C    8.378460   2.999014   0.148003
C    9.229290   5.706973  -0.175971
C    8.782558   6.888505  -2.723114
C   10.386747   6.983048   1.689812
H    0.972529  -0.892518  -1.557531
H    0.859296   1.685296  -3.698100
H    0.566937   2.229121  -0.406556
H    5.405033   0.271799  -3.100833
H    4.480503   3.789732   1.424608
H    9.303537   1.827894  -1.290758
H    8.999613   2.255294   1.981057
H    9.643669   5.736887  -4.210461
H    9.599468   8.786093  -2.849972
H    6.757037   7.056143  -3.107012
H   10.735969   6.126095   3.522525
H   11.016706   8.918846   1.437534

