%chk=mol_6209.chk
# wB97XD/Def2SVP opt pop=full gfinput

C 5 H 5 N 1 O 1

1 2
O    1.987425  -0.164973  -0.735651
C    4.569225  -0.036755   0.049605
C    5.531965   2.707637   0.000000
C    4.452384   4.157303   2.141702
C    3.574965   5.339025   3.868798
C    8.260730   2.707637   0.000000
N   10.435823   2.707637   0.000000
H    1.441767  -1.910759  -0.535189
H    5.652889  -1.224713  -1.257008
H    4.718004  -0.863491   1.944377
H    4.856483   3.597774  -1.748016
H    2.792392   6.391980   5.399004

