%chk=mol_4760.chk
# wB97XD/Def2SVP opt freq pop=full gfinput

C 4 H 9 N 1 O 2

1 2
C    3.19375873  -1.38338947  -0.61754978
C    2.56581903  -0.19214992   0.08313996
N    3.16438866   1.05021966  -0.34453988
C    4.32161856   1.55254948   0.21146992
O    4.92106819   1.03036964   1.14497960
C    4.77990818   2.85817885  -0.44168982
O    4.34874821   2.97004890  -1.79468930
H    2.71391892  -2.31297922  -0.29557988
H    4.26390839  -1.45519948  -0.39473987
H    3.08563900  -1.29927957  -1.70450938
H    2.67982888  -0.29289988   1.16713953
H    1.49821937  -0.13697995  -0.14860995
H    2.77851892   1.55548942  -1.13753963
H    5.87231779   2.91066885  -0.41860983
H    4.36470842   3.69525862   0.12666996
H    4.86290836   2.31313920  -2.29806900

