%chk=mol_5751.chk
# wB97XD/Def2SVP opt freq pop=full gfinput

C 5 H 11 N 1 O 1

1 2
N    2.20169926  -0.89161962   1.30357945
C    2.16331911  -0.32312989  -0.04441999
C    3.08677888   0.89334971  -0.18104993
C    4.57917786   0.60561973   0.05703998
O    4.78875828   0.16679993   1.39493942
C    5.15697813  -0.37899986  -0.92781967
C    5.73424768  -1.55363941  -0.63566977
H    1.58870947  -1.70841944   1.33298945
H    1.79271936  -0.22304992   1.96013927
H    1.13472950  -0.02204999  -0.27179992
H    2.43901920  -1.09560955  -0.76951969
H    2.75894880   1.65819943   0.53593981
H    2.95468879   1.32064950  -1.18324959
H    5.13254786   1.54550946  -0.05236998
H    4.06585836  -0.47368979   1.57437944
H    5.10276794  -0.08194997  -1.97227931
H    5.83328772  -1.89813936   0.38946986
H    6.13028765  -2.19140911  -1.41787946

