%chk=mol_0811.chk
# wB97XD/Def2SVP opt pop=full gfinput

C 4 H 8 O 2

1 2
C    3.114930  -1.026745  -0.759197
O    5.686470  -0.264089  -0.620284
C    5.912254   2.309718   0.150573
C    8.650259   2.949239   0.299163
C   10.075112   3.874241  -1.979790
O    9.229592   5.573218  -0.038494
H    3.053608  -3.002926  -1.359223
H    2.093590   0.116539  -2.147201
H    2.212397  -0.871731   1.095058
H    5.046476   2.556214   2.015110
H    4.929748   3.527249  -1.207819
H    9.652872   1.907225   1.742724
H    9.113204   3.931329  -3.784914
H   12.080452   3.484315  -2.088488

