%chk=mol_6846.chk
# wB97XD/Def2SVP opt freq pop=full gfinput

C 5 H 12 N 2

1 2
C    0.96663964   0.06824998   0.01779999
C    2.47713900  -0.08101998   0.01521999
N    3.15516877   0.94778967   0.85163969
C    4.16521835  -0.06761998   1.25142956
C    3.13980889  -1.18020964   0.90885967
C    2.39259911  -1.80350935   2.06961918
N    3.77938867  -2.19368935   0.05202998
H    0.50115985  -0.77579969  -0.50286978
H    0.66713977   0.98431963  -0.50346982
H    0.55141979   0.10811996   1.03024960
H    2.84669876  -0.05813998  -1.02047956
H    2.59238911   1.27190959   1.63905931
H    5.06801796  -0.02835999   0.62965971
H    4.47419834  -0.00458000   2.29990911
H    1.96044922  -1.04093969   2.72628880
H    3.05924892  -2.42004919   2.68288898
H    1.57394946  -2.44039917   1.71766937
H    4.33471870  -1.80522931  -0.71180969
H    3.11857867  -2.83575892  -0.38423985

