%chk=mol_5279.chk
# wB97XD/Def2SVP opt pop=full gfinput

C 5 H 11 N 1 O 1

1 2
C    3.609188  -0.950287  -2.383833
O    4.162500   0.162176  -0.003534
C    5.817484   2.329938  -0.067558
C    4.646005   4.848508  -0.984623
C    5.915410   6.203177   1.251528
N    8.365572   7.204430   0.441837
C    6.289217   3.614649   2.518476
H    2.371946  -2.575413  -2.077962
H    5.351666  -1.594986  -3.289465
H    2.640193   0.409655  -3.601440
H    7.596151   1.869298  -1.032584
H    2.575413   4.875323  -0.881727
H    5.198164   5.447646  -2.886084
H    4.735729   7.559925   2.266821
H    9.545309   5.947970  -0.417081
H    9.386477   7.983564   1.879503
H    8.135385   3.243979   3.375221
H    4.831954   3.179521   3.927815

