%chk=mol_5350.chk
# wB97XD/Def2SVP opt pop=full gfinput

C 5 H 5 N 1 O 1

1 2
C    1.912592  -0.146189   0.023962
O    4.594585  -0.017348   0.023716
C    5.468886   2.529493   0.000000
C    8.197651   2.529493   0.000000
C   10.446728   2.529493   0.000000
C   13.346380   2.522350   0.000057
N   15.537631   2.537146  -0.000076
H    1.356578  -2.135901   0.042897
H    1.144305   0.737409  -1.680496
H    1.143020   0.770063   1.710505
H    4.748939   3.518349   1.670934
H    4.749014   3.487074  -1.689094

