%chk=mol_4438.chk
# wB97XD/Def2SVP opt pop=full gfinput

C 6 H 11 N 1

1 2
C    1.321637   2.025616  -0.753868
N   -0.816437   0.475568   0.055785
C    1.653454  -0.729415  -0.145811
C    2.974864  -1.686921   2.186394
C    2.528643  -0.477137   4.826228
C    2.939015  -3.127818   5.964391
C    2.078567  -4.207324   3.400562
H    1.342556   2.609409  -2.713968
H    1.976861   3.416549   0.594772
H   -1.936062   0.002986  -1.444563
H    1.917071  -2.043663  -1.694839
H    5.011478  -1.763719   1.757313
H    0.619679   0.262899   5.142417
H    3.902020   0.957260   5.396283
H    4.915102  -3.541328   6.423746
H    1.753231  -3.605031   7.585739
H    3.069784  -5.907341   2.771680
H    0.036132  -4.535362   3.275349

