%chk=mol_3289.chk
# wB97XD/Def2SVP opt pop=full gfinput

C 5 H 10 O 2

1 2
C    1.503315   1.977202  -4.213258
C    1.351702  -0.171266  -2.316540
O    0.769742  -2.443454  -3.660211
C    3.839130  -0.500551  -0.870313
O    3.467799  -2.467378   0.960038
C    5.458285  -3.030119   2.502772
C    7.765754  -2.001314   2.570519
H    1.964068   3.769588  -3.289031
H   -0.300939   2.193122  -5.203550
H    2.931627   1.589335  -5.662300
H   -0.201369   0.161912  -0.988535
H    0.947376  -3.812787  -2.436802
H    4.336695   1.269518   0.086001
H    5.346262  -1.067280  -2.175812
H    4.914819  -4.537403   3.784158
H    8.364400  -0.498661   1.316383
H    9.145537  -2.674888   3.933333

