%chk=mol_1105.chk
# wB97XD/Def2SVP opt freq pop=full gfinput

C 4 H 5 N 1 O 1

1 2
O    1.02541959   0.03838998  -0.16806994
C    2.45014906   0.03617999   0.01122000
C    3.21528864  -0.71381974  -1.03885961
C    3.24408889   0.79329973  -1.02334964
C    4.44026804   1.46960950  -0.61339974
N    5.40584803   2.01351929  -0.27166989
H    0.57424980   0.50163984   0.56024975
H    2.83156896  -0.01919999   1.02715957
H    2.65172911  -1.20194960  -1.82594943
H    4.09806824  -1.26023948  -0.72637975
H    2.67930913   1.29648948  -1.80104935

