%chk=mol_6061.chk
# wB97XD/Def2SVP opt freq pop=full gfinput

C 4 H 6 N 2 O 1

1 2
O    0.98028958  -0.15895994   0.20519993
C    2.32138896   0.12877995  -0.12799995
C    2.88657880   1.24766958   0.69218975
N    3.94348836   0.93866962   1.37575948
N    4.33136845  -0.36139986   1.13344955
C    3.40850854  -1.28422952   1.78738940
C    3.24657869  -0.94502968   0.32168987
H    0.81059968  -1.08250952  -0.04278998
H    2.40691900   0.36202985  -1.19311965
H    2.41790915   2.24095917   0.69597977
H    3.83005857  -2.24716902   2.04601932
H    2.72039890  -0.88138968   2.52087903
H    3.54118872  -1.65518939  -0.43565983

