%chk=mol_0058.chk
# wB97XD/Def2SVP opt freq pop=full gfinput

C 4 H 8

1 2
C    0.99216962  -0.01898999  -0.01613999
C    2.49248910   0.02684999  -0.00175000
C    3.20972896  -1.29220951  -0.00691000
C    3.17120862   1.18488955   0.01867999
H    0.55002981   0.98121965  -0.01326999
H    0.62115979  -0.55061978   0.86701965
H    0.63759977  -0.53960979  -0.91119969
H    2.50605893  -2.12814927   0.05550998
H    3.88783860  -1.36822939   0.84982967
H    3.78622866  -1.41140950  -0.92945969
H    2.66179919   2.14319921   0.02198999
H    4.25596857   1.20305955   0.02722999

