%chk=mol_0344.chk
# wB97XD/Def2SVP opt pop=full gfinput

C 5 H 7 N 1

1 2
C    1.755178   0.246855   0.269569
C    4.557226  -0.200424   0.071280
C    5.516432  -2.551508  -0.012888
C    6.216330   2.124600  -0.102253
C    6.224002   3.566272   2.277479
N    6.236172   4.730778   4.135193
H    1.293952   1.240945   2.023689
H    0.685177  -1.524896   0.255945
H    1.096778   1.386020  -1.327249
H    4.308349  -4.209006   0.092615
H    7.533865  -2.896534  -0.174913
H    5.546781   3.322857  -1.654455
H    8.163352   1.595137  -0.577179

