%chk=mol_1659.chk
# wB97XD/Def2SVP opt pop=full gfinput

C 5 H 12 N 2

1 2
C    2.096273  -0.024566   0.201823
N    4.840817   0.005027  -0.029574
C    5.959686   1.955602   1.675526
C    8.025213  -0.012623   2.407889
C    9.017755  -0.058336   5.077505
N   10.073771   0.065177   0.506465
C    6.003093  -1.989371   1.584800
H    1.325152  -1.650166  -0.819272
H    1.299376   1.678568  -0.664862
H    1.422567  -0.119374   2.158483
H    4.763112   2.533065   3.270209
H    6.610564   3.668828   0.714203
H    7.471070  -0.100118   6.451733
H   10.162550   1.619231   5.481453
H   10.192597  -1.729855   5.413121
H    9.345754   0.238483  -1.279420
H   11.132074  -1.541884   0.459090
H    6.693788  -3.643165   0.547888
H    4.821958  -2.668747   3.152328

