%chk=mol_3660.chk
# wB97XD/Def2SVP opt pop=full gfinput

C 5 H 6 O 2

1 2
O    1.859150   0.000775   0.459940
C    4.134267   0.018255   0.048566
C    5.599542   2.362555   0.015571
C    8.071682   2.562941  -0.413359
C    8.801003   5.263643  -0.277223
O    6.517854   6.635263   0.273595
C    4.453026   4.861547   0.472243
H    5.206403  -1.730517  -0.320006
H    9.370301   1.040521  -0.800545
H   10.167671   5.614244   1.233065
H    9.567702   5.942905  -2.072311
H    3.032444   5.350363  -0.947735
H    3.633773   5.021153   2.363424

