%chk=mol_5082.chk
# wB97XD/Def2SVP opt freq pop=full gfinput

C 5 H 8 N 2

1 2
C    1.36339939   0.19518994   0.49464983
C    2.66878891  -0.10585996  -0.16405994
C    3.46774864   1.00303960  -0.79419971
C    3.97539854   0.37433985   0.47425982
N    4.86627817  -0.77313972   0.43328983
C    4.21750832  -1.72911942  -0.16713993
N    2.93488884  -1.49435949  -0.60457975
H    1.32237947   1.22328961   0.86952966
H    1.19508958  -0.47870982   1.34077942
H    0.54306978   0.06240998  -0.21758991
H    3.08852887   2.01607919  -0.73274976
H    4.00694847   0.79955965  -1.71205938
H    4.01137829   1.00367963   1.35273945
H    4.59864855  -2.75110888  -0.31578988
H    2.26610899  -2.23666906  -0.43503985

