%chk=mol_5475.chk
# wB97XD/Def2SVP opt freq pop=full gfinput

C 5 H 9 N 1 O 1

1 2
N    1.08606958  -0.14787994  -0.04907998
C    2.50129890   0.12836994   0.00246000
C    3.33060861  -0.61237979  -1.08389950
C    4.42068815  -0.27146989   0.01073000
C    3.28872871  -0.77126974   0.99645960
O    4.48419857   1.18214953   0.12671995
C    3.08322883   1.53326941   0.11404996
H    0.56761980   0.19969992   0.75692970
H    0.84911966  -1.13625956  -0.12832995
H    3.44360852  -0.10152996  -2.04429913
H    3.12648869  -1.67446935  -1.25818956
H    5.38568783  -0.77600974  -0.00788000
H    3.08078885  -1.84681928   0.99909961
H    3.36063886  -0.41178986   2.02662921
H    2.86787891   2.16278934  -0.75327975
H    2.82146907   2.03710938   1.04801965

