%chk=mol_6329.chk
# wB97XD/Def2SVP opt freq pop=full gfinput

C 4 H 6 N 2 O 1

1 2
O    1.14641953   0.00154000  -0.08326997
N    2.51948905   0.01043000  -0.27878991
C    3.19448876  -1.05358958   0.24863991
N    4.41335869  -0.85661966   0.67193973
C    4.60295820   0.62235981   0.45581985
C    3.27520871   1.13686955  -0.07611997
C    2.95870900   2.42573905  -0.24363992
H    0.82802969   0.57337976  -0.80322969
H    2.66229892  -2.01662922   0.28015989
H    4.85723782   1.09037960   1.41281950
H    5.41002798   0.77702969  -0.26788992
H    3.67265844   3.20853877  -0.01676999
H    1.98383927   2.72783899  -0.61070979

