%chk=mol_4589.chk
# wB97XD/Def2SVP opt freq pop=full gfinput

C 4 H 10 N 2 O 1

1 2
C    1.43595946  -0.88007963   0.73580974
C    2.22667909  -1.02603960  -0.55922979
C    2.53975916  -2.49171901  -0.83460969
O    1.39953947  -0.49965981  -1.61918938
C    1.91790926  -0.01662999  -2.76308894
N    0.96626961   0.51843983  -3.54855871
N    3.14854884  -0.06687997  -3.11634898
H    1.19237947   0.17266993   0.91584969
H    2.00184917  -1.25834954   1.59252942
H    0.48268983  -1.41729951   0.67836976
H    3.14676881  -0.43823984  -0.46749985
H    1.61835933  -3.07335901  -0.94984961
H    3.13047886  -2.92857885  -0.02353999
H    3.09915876  -2.60754919  -1.76806939
H    0.04099999   0.14195995  -3.39749861
H    1.25070953   0.58774978  -4.51676846
H    3.72170877  -0.51724982  -2.40724897

