%chk=mol_1421.chk
# wB97XD/Def2SVP opt freq pop=full gfinput

C 7 H 10

1 2
C    0.91747969  -0.05198998  -0.01492999
C    2.41676903   0.01246000   0.00818000
C    3.06968880   1.18786955   0.01487999
C    4.56796837   1.30182946   0.04757998
C    5.33847809  -0.02687999  -0.05694998
C    4.49396849  -1.26460946   0.00315000
C    3.15438890  -1.23265958   0.03503999
H    0.54663980  -1.08067954  -0.06774998
H    0.52380979   0.48183984  -0.88725966
H    0.50136983   0.40238985   0.89012969
H    2.51052904   2.11940932   0.00587000
H    4.88832808   1.96291935  -0.76746970
H    4.85136843   1.80735934   0.97946966
H    6.08431768  -0.06774998   0.74624974
H    5.90223742  -0.04013998  -0.99838966
H    5.00854778  -2.22092915   0.01405999
H    2.59548903  -2.16429925   0.07466997

