%chk=mol_3402.chk
# wB97XD/Def2SVP opt freq pop=full gfinput

C 6 H 14 O 1

1 2
C    2.37315917  -0.64857978   0.32979986
O    3.69730854  -0.18009993   0.11553995
C    3.76841855   1.24508953   0.16492994
C    5.21974802   1.72111940  -0.06806998
C    6.14822769   1.14911962   1.01623964
C    5.71784830   1.25605953  -1.44690943
C    5.25758791   3.25647879  -0.00786000
H    2.38171911  -1.74055934   0.27948990
H    1.70157933  -0.26825988  -0.44607985
H    2.01537919  -0.34722987   1.31919944
H    3.41334891   1.58728945   1.14485955
H    3.10749888   1.66298938  -0.60445976
H    5.81432819   1.44523942   2.01701927
H    7.17449760   1.51116943   0.88758963
H    6.17913771   0.05445998   0.98465961
H    5.06947803   1.63118935  -2.24682927
H    5.74110794   0.16371994  -1.52015948
H    6.73245764   1.62111938  -1.64297938
H    4.61235809   3.69850874  -0.77526969
H    6.27336740   3.63459873  -0.16865994
H    4.91641808   3.62262869   0.96693963

