%chk=mol_3856.chk
# wB97XD/Def2SVP opt freq pop=full gfinput

C 5 H 9 N 1 O 1

1 2
C   -1.71872938   0.62963974   0.29960987
N   -1.58359945  -0.73908973  -0.36223984
C   -0.22361992  -0.71372974   0.22897992
C    1.06689954  -1.05106962  -0.45986980
O    1.97159922  -0.02044999   0.01489999
C    1.13390958   1.02251959   0.58215976
C   -0.21696992   0.80501968  -0.04553998
H   -2.40871906   1.30328941  -0.21504992
H   -1.96931922   0.59709978   1.36721945
H   -1.59479940  -0.69722974  -1.38262951
H   -0.21800992  -1.02590966   1.28583944
H    1.46212947  -2.02993917  -0.17308994
H    1.01551962  -0.98917961  -1.55283940
H    1.13046956   0.91845965   1.67358935
H    1.56627941   1.99365926   0.32404989
H   -0.13418995   1.11252952  -1.10450959

