%chk=mol_4881.chk
# wB97XD/Def2SVP opt freq pop=full gfinput

C 4 H 9 N 1 O 2

1 2
C    1.62832928  -0.73334974   0.29686987
C    3.05405879  -0.41767985  -0.11189996
O    3.38013864   0.89045966   0.38173985
C    4.62640858   1.35191953   0.09696996
C    4.84047794   2.72802901   0.65362978
N    5.48556805   0.66145980  -0.58659977
O    6.68430758   1.36720955  -0.75116974
H    1.33133948  -1.72441936  -0.05709998
H    0.93660969   0.01046000  -0.11221996
H    1.52332938  -0.70034969   1.38630950
H    3.13590884  -0.43230984  -1.20438957
H    3.73548841  -1.15677965   0.32365990
H    3.99643850   3.02889895   1.28110957
H    4.93759775   3.44159889  -0.16888994
H    5.74578762   2.74447894   1.26637959
H    7.22659731   0.74153972  -1.26709950

