%chk=mol_0215.chk
# wB97XD/Def2SVP opt pop=full gfinput

C 4 H 4 O 1

1 2
C    1.889726   0.000000   0.000000
C    4.618491   0.000000   0.000000
C    6.867567   0.000000   0.000000
C    9.592628   0.021902  -0.000000
O   10.766525   2.011538  -0.000000
H    1.145042   1.929146   0.022072
H    1.145004  -0.983678   1.659633
H    1.145004  -0.945430  -1.681724
H   10.509882  -1.845979  -0.000000

