%chk=mol_6107.chk
# wB97XD/Def2SVP opt freq pop=full gfinput

C 5 H 9 N 1 O 1

1 2
O    2.20550919  -0.34027988   1.40918946
C    2.46372914  -0.01600999   0.05340998
C    2.98755908   1.36892951  -0.01704999
C    4.14188862   1.79117942  -0.53986979
C    4.27661800   3.26076889  -0.37869987
N    2.96990895   3.72641850   0.11865996
C    2.23010921   2.51946902   0.54755980
H    1.95918930  -1.27888954   1.43097937
H    1.53170943  -0.10273996  -0.51374978
H    3.18527865  -0.73596972  -0.34712988
H    4.89676809   1.16494954  -0.99115968
H    5.06418800   3.49959874   0.34328988
H    4.51555824   3.74387860  -1.33148944
H    2.46513915   4.13167858  -0.66723973
H    1.20437956   2.55449891   0.16619994
H    2.20008922   2.47355890   1.64109945

