%chk=mol_0139.chk
# wB97XD/Def2SVP opt pop=full gfinput

C 5 H 10

1 2
C    1.952484   0.022318  -0.123739
C    4.767760   0.007483  -0.028062
C    6.258111  -1.337076  -2.050636
C    6.281374   1.507094  -1.922759
C    8.612862   2.870910  -1.121023
H    1.208196   1.487762   1.129508
H    1.211031  -1.801778   0.504859
H    1.241134   0.385277  -2.031399
H    5.459022  -0.129352   1.897342
H    5.241250  -2.216630  -3.597150
H    7.937549  -2.361836  -1.475838
H    5.278534   2.529398  -3.389469
H    9.622108   1.869128   0.382896
H    8.127995   4.756819  -0.424754
H    9.897062   3.085677  -2.726270

