%chk=mol_2532.chk
# wB97XD/Def2SVP opt freq pop=full gfinput

C 7 H 12

1 2
C    0.99709958   0.20472993   0.87804967
C    2.47509909   0.09214997   0.68445969
C    3.26618862   1.13497961   0.38521984
C    4.71517801   1.09778965   0.18404993
C    5.40324783  -0.23933990   0.28655991
C    5.35153770   2.25597930  -0.08818997
C    6.81181765   2.48708892  -0.31773987
H    0.72748971  -0.12335995   1.88712919
H    0.47720984  -0.43553984   0.15817994
H    0.63543975   1.22973955   0.74525976
H    2.88329887  -0.90647966   0.80428970
H    2.79624891   2.11279917   0.28192991
H    4.97242832  -0.94959962  -0.42810985
H    5.29713821  -0.64879978   1.29714942
H    6.47246742  -0.19808993   0.07062997
H    4.76584816   3.17311883  -0.15296994
H    7.43520689   1.60842931  -0.14668994
H    7.16552734   3.27339888   0.35694987
H    6.97414732   2.82530904  -1.34576952

