%chk=mol_0307.chk
# wB97XD/Def2SVP opt freq pop=full gfinput

C 5 H 11 N 1

1 2
C    3.10583878  -1.16693962  -0.46365982
C    2.46834898   0.05398998   0.17664994
C    3.40521860   1.22484946   0.17632994
C    3.50073862   2.12362933  -1.02933955
C    2.85416889   2.62511897   0.23038991
N    3.53709865   3.63610864   1.03027964
H    2.41278911  -2.01405931  -0.44350982
H    4.01825857  -1.45866954   0.06737997
H    3.37474871  -0.96886969  -1.50666940
H    2.19536924  -0.17965993   1.21157956
H    1.54008949   0.29602990  -0.35374987
H    4.31845808   1.01314962   0.72141975
H    2.85655904   1.92784929  -1.87913930
H    4.47638845   2.50837922  -1.30271959
H    1.77254939   2.74067903   0.19994992
H    4.54807806   3.50833869   1.01023960
H    3.26537871   3.56109858   2.01027918

