%chk=mol_2886.chk
# wB97XD/Def2SVP opt pop=full gfinput

C 5 H 8 O 2

1 2
C    1.881638  -0.020390  -0.332535
C    4.702546  -0.193073   0.003269
C    5.668687  -2.828164   0.466932
C    6.125528   1.919168  -0.026305
C    8.894639   2.060860   0.259818
O   10.135905   0.486491  -1.305952
O    9.928527   3.593333   1.632912
H    1.245783   1.922381  -0.656094
H    0.910338  -0.726449   1.354896
H    1.285600  -1.153848  -1.957454
H    4.539311  -3.754489   1.933265
H    7.628938  -2.868737   1.117376
H    5.533364  -3.950321  -1.265096
H    5.255253   3.773311  -0.178466
H    9.007607  -0.445994  -2.425766

