%chk=mol_1967.chk
# wB97XD/Def2SVP opt pop=full gfinput

C 6 H 13 N 1

1 2
N    4.144037  -0.490119  -2.943267
C    4.542542   0.122303  -0.285821
C    5.864860   2.671846   0.016044
C    4.347107   4.923606  -0.966935
C    5.642004   7.188783   0.248102
C    6.703633   6.235170   2.758641
C    6.285928   3.380739   2.784512
H    3.371989  -2.248510  -3.084619
H    5.840331  -0.569091  -3.851621
H    5.686091  -1.365214   0.590180
H    2.709697   0.138593   0.677297
H    7.704792   2.619387  -0.947811
H    2.375650   4.816364  -0.337014
H    4.356008   5.052504  -3.030648
H    7.193847   7.850092  -0.956428
H    4.337413   8.772827   0.505917
H    8.721615   6.685794   2.894815
H    5.762096   7.130277   4.370143
H    7.890835   2.373288   3.613081
H    4.610894   2.937504   3.921371

