%chk=mol_4953.chk
# wB97XD/Def2SVP opt freq pop=full gfinput

C 4 H 9 N 1 O 2

1 2
C    1.49199939   2.45032907  -1.03702962
C    2.92501903   2.02603912  -1.13593960
O    3.49492884   1.75484931  -2.18330908
O    3.48833871   2.00331926   0.10107996
C    4.86760855   1.58925939   0.14696994
C    5.80696774   2.75048900  -0.20232993
N    5.70422792   3.83953857   0.77320975
H    1.43361938   3.46833873  -0.64318973
H    0.94298965   1.75706935  -0.39424983
H    1.03858960   2.43316913  -2.03208923
H    5.03336811   0.73741978  -0.52403980
H    5.06371832   1.23299956   1.16471958
H    5.56728792   3.15030885  -1.19256949
H    6.84041739   2.39084911  -0.22179992
H    4.72996807   4.13550854   0.83573967
H    6.22911787   4.64433813   0.43380982

