%chk=mol_5616.chk
# wB97XD/Def2SVP opt freq pop=full gfinput

C 6 H 9 N 1

1 2
C    1.01736963   0.01541999   0.50350982
C    2.29159904   0.00231000   0.09425997
C    3.09402895  -1.24083948  -0.23433992
C    4.22239876  -0.77890968  -1.12213957
N    5.35978794  -0.02693999  -0.59780979
C    4.23236847   0.72025973  -1.14501953
C    3.10902882   1.22285950  -0.27252990
H    0.48421982   0.94869959   0.65711975
H    0.47323984  -0.90587962   0.68605977
H    2.47766924  -1.98018920  -0.75534970
H    3.49452853  -1.69054925   0.67994976
H    4.35152817  -1.32795954  -2.04269934
H    5.35034800  -0.01190000   0.42494985
H    4.36750841   1.24045944  -2.08220911
H    3.51475883   1.69719934   0.62775975
H    2.50069904   1.95447922  -0.81676966

