%chk=mol_5000.chk
# wB97XD/Def2SVP opt pop=full gfinput

C 4 H 6 N 2 O 1

1 2
C    1.869733   0.060377  -0.007842
N    4.591184  -0.102329  -0.009619
N    5.961954   2.045194  -0.019691
C    8.348356   1.228209  -0.019464
C    8.511761  -1.422246  -0.010072
C    6.049505  -2.255917  -0.004195
O    5.162902  -4.606831   0.004592
H    1.290116   2.042794   0.012472
H    1.162087  -0.893746   1.681365
H    1.163126  -0.860222  -1.715720
H    9.867886   2.596880  -0.026418
H   10.188912  -2.584881  -0.008220
H    3.327449  -4.599291   0.005159

