%chk=mol_3422.chk
# wB97XD/Def2SVP opt freq pop=full gfinput

C 5 H 10 O 2

1 2
C    2.41571903  -0.51817983   0.08899996
O    3.69573855   0.10287996   0.14860995
C    3.75117850   1.48013949   0.13343994
C    2.69600892   2.31011915   0.08444997
C    5.17101812   2.01353931   0.16160995
C    5.91691780   1.61732936   1.43791938
O    6.23065805   0.22648992   1.44860947
H    2.56808901  -1.60128939   0.09827997
H    1.89642930  -0.25835991  -0.83913964
H    1.81340933  -0.25488991   0.96463966
H    1.66970944   1.96429920   0.05673998
H    2.83264899   3.38791871   0.06852998
H    5.16877842   3.10703874   0.08231997
H    5.70228767   1.62327945  -0.71525973
H    5.33443785   1.85049927   2.33523893
H    6.86424732   2.16165900   1.49777949
H    5.41806793  -0.23722991   1.16475964

