%chk=mol_2126.chk
# wB97XD/Def2SVP opt pop=full gfinput

C 4 H 5 N 3

1 2
N    1.688962   0.043161   0.517029
C    4.117373  -0.005442   0.543636
N    5.563033   2.095272   0.287257
C    8.143265   2.310247   0.268870
C    9.491301   4.435943   0.000000
C   12.148255   4.435943   0.000000
N   14.323349   4.435943   0.000000
H    1.004314  -1.758107   0.740943
H    5.184974  -1.782144   0.778756
H    4.542864   3.706754   0.072263
H    9.102131   0.501666   0.502478
H    8.558909   6.243825  -0.234307

