%chk=mol_1172.chk
# wB97XD/Def2SVP opt freq pop=full gfinput

C 6 H 11 N 1

1 2
C    1.02556968  -0.23941991   0.01683999
C    2.53718901  -0.03904999   0.01453999
C    3.02738905   1.43281937   0.00000000
C    2.53208899   2.16519928  -1.25916958
C    2.53223920   2.18975925   1.24408948
C    4.47138834   1.43281937   0.00000000
N    5.62239790   1.43281937   0.00000000
H    0.79543972  -1.31017947   0.02726999
H    0.56022978   0.18629992  -0.87579966
H    0.56065983   0.20349993   0.90130967
H    2.94775867  -0.57002974  -0.85643971
H    2.94811893  -0.55283982   0.89563966
H    2.82494879   1.63138938  -2.17133927
H    2.95607901   3.17509890  -1.32475960
H    1.44214952   2.27160907  -1.26671958
H    2.82495904   1.67419934   2.16715908
H    1.44202948   2.29659915   1.24991953
H    2.95619893   3.20108867   1.29011953

