%chk=mol_6862.chk
# wB97XD/Def2SVP opt pop=full gfinput

C 6 H 11 N 1

1 2
C    1.892523   0.013889  -0.148514
C    4.758708  -0.036604   0.124949
N    5.555474  -2.368753   1.447738
C    6.314350  -1.610897   4.034717
C    8.729685  -2.945818   4.855746
C    6.600662   1.186389   3.916023
C    5.713398   2.071612   1.726378
H    1.233878  -1.586217  -1.285656
H    1.274677   1.753477  -1.087745
H    0.936492  -0.079406   1.688792
H    5.639415   0.031766  -1.747751
H    7.115310  -3.038963   0.539044
H    4.786449  -2.088242   5.350552
H   10.325010  -2.490111   3.617182
H    8.474571  -5.000026   4.839834
H    9.250644  -2.391278   6.780715
H    7.339999   2.334322   5.433624
H    5.643629   4.039365   1.190622

