%chk=mol_6482.chk
# wB97XD/Def2SVP opt freq pop=full gfinput

C 7 H 16

1 2
C    2.21962905  -0.47432980  -1.12267959
C    3.41274881   0.27672991  -0.55393982
C    3.10440874   1.76413929  -0.37279984
C    4.29696846   2.50667906   0.23565991
C    4.10058832   4.03326845   0.31063989
C    2.90610909   4.43015814   1.17943954
C    5.37301779   4.69300842   0.84853971
H    2.46422911  -1.53362942  -1.25051951
H    1.93091929  -0.07179997  -2.09900928
H    1.35652947  -0.40396985  -0.45293981
H    4.26930809   0.15361995  -1.22701955
H    3.69037843  -0.16656993   0.40947986
H    2.22725916   1.86910927   0.27526990
H    2.84925890   2.20623922  -1.34326947
H    5.18951797   2.29743910  -0.36803988
H    4.49717855   2.10991931   1.23903942
H    3.92777848   4.41411877  -0.70418972
H    2.98633885   4.00178862   2.18375921
H    1.96410930   4.09336853   0.73755974
H    2.84421897   5.51891756   1.27998960
H    5.59161806   4.36035824   1.86897933
H    5.26997805   5.78296757   0.86225969
H    6.23518753   4.44813824   0.21954991

