%chk=mol_5389.chk
# wB97XD/Def2SVP opt pop=full gfinput

C 4 H 10 N 2 O 1

1 2
C    3.073261   3.046692   4.998723
O    4.890687   4.440876   3.592653
C    6.155499   2.872365   1.779215
C    8.116034   4.471602   0.373467
N   10.009860   5.433813   2.133501
C   11.977386   4.027101   3.011335
N   13.155404   2.231219   1.889613
H    2.167100   4.331007   6.340504
H    3.988796   1.524423   6.056175
H    1.624673   2.273945   3.742036
H    4.767458   2.134937   0.431311
H    7.067462   1.286639   2.751574
H    7.178862   6.103626  -0.487247
H    8.987953   3.381382  -1.152582
H    9.162790   6.512072   3.489663
H   12.572272   4.595606   4.928557
H   12.460193   2.010139   0.104351

