%chk=mol_0439.chk
# wB97XD/Def2SVP opt freq pop=full gfinput

C 4 H 6 N 2

1 2
C    0.90098965   0.08597997   0.03758999
C    2.40927911   0.00691000   0.07004997
N    2.92906880  -1.26814950   0.17979993
C    3.13901877   1.13798952   0.00000000
C    4.54501867   1.13798952   0.00000000
N    5.69602823   1.13798952   0.00000000
H    0.53547978   1.11610961   0.00892000
H    0.47807983  -0.39434984   0.92858964
H    0.51633984  -0.43220982  -0.84770972
H    2.34245920  -2.01012921  -0.19688992
H    3.91179848  -1.37625945  -0.06664997
H    2.65453911   2.10436916  -0.07645997

