%chk=mol_3133.chk
# wB97XD/Def2SVP opt freq pop=full gfinput

C 5 H 12 O 2

1 2
C    1.75651932  -1.76906931  -0.78004974
C    2.84046912  -0.93421966  -0.11095996
C    2.78973889   0.53223979  -0.53775978
O    1.53848946   1.10119963  -0.13787995
C    3.92280841   1.34403944   0.10125996
O    3.79884863   2.70086908  -0.34839985
C    4.81516838   3.52622867   0.20704992
H    1.84092927  -2.81528902  -0.46911985
H    1.84961927  -1.73052931  -1.87000930
H    0.75667971  -1.41741955  -0.50682980
H    3.82059860  -1.36009943  -0.35675988
H    2.70888877  -1.01088965   0.97512960
H    2.84452915   0.61750978  -1.62943935
H    1.64202940   2.06263924  -0.28313991
H    4.89878845   0.94440967  -0.19521993
H    3.83198857   1.32855952   1.19362962
H    4.66957808   4.54563808  -0.16020994
H    5.80396795   3.17870879  -0.10738996
H    4.74751854   3.53512859   1.29924953

