%chk=mol_3784.chk
# wB97XD/Def2SVP opt freq pop=full gfinput

C 5 H 6 O 2

1 2
O    1.32225943  -0.59434974  -0.92003965
C    2.68723917  -0.19507994  -0.90015966
C    2.91149902   0.98350960   0.04064999
O    1.98730934   1.39536941   0.75073969
C    4.25331831   1.68164933  -0.00107000
C    5.38881826   0.74947971  -0.02545999
C    6.32321739  -0.00343000  -0.05440998
H    0.88850963  -0.12592995  -0.17688994
H    2.96924877   0.09221996  -1.91633928
H    3.28592896  -1.04740953  -0.56934977
H    4.32865858   2.32487917   0.88418967
H    4.26624823   2.32737923  -0.88469964
H    7.15727711  -0.66790974  -0.07907997

