%chk=mol_2397.chk
# wB97XD/Def2SVP opt freq pop=full gfinput

C 6 H 10 O 1

1 2
C    0.98819959   0.02240999   0.10286996
C    2.32735920   0.00819000   0.03427999
C    3.14500880  -1.25967956  -0.00822000
C    4.11901855  -1.21107948  -1.18799961
O    4.93981791  -0.03524999  -1.13623965
C    4.14511871   1.15598953  -1.22054958
C    3.17033887   1.25775957  -0.04447998
H    0.43074983   0.95459962   0.12086996
H    0.41244984  -0.89707965   0.14741994
H    2.51199913  -2.15041924  -0.08448997
H    3.71134853  -1.33194947   0.92829967
H    4.78537798  -2.07922935  -1.15299952
H    3.58875871  -1.24007964  -2.14796901
H    4.83002806   2.00985932  -1.20698953
H    3.61690879   1.17128956  -2.18164921
H    3.73691845   1.34626949   0.89090967
H    2.55515909   2.15837932  -0.14767994

