%chk=mol_3788.chk
# wB97XD/Def2SVP opt freq pop=full gfinput

C 5 H 10 O 2

1 2
O    0.31820989   0.51953983  -1.25862944
C    1.22429955   1.01489961  -0.28103989
C    2.30376911   1.85908926  -0.94614965
O    3.20254874   2.34412909   0.04952998
C    4.21013832   3.17432880  -0.52060980
C    5.12030792   3.59704876   0.58729976
C    5.39661789   4.86737823   0.90684968
H   -0.34956986  -0.00256000  -0.78123975
H    1.67343938   0.16999994   0.25150990
H    0.66985977   1.61227942   0.45040983
H    1.84127927   2.69788909  -1.48030937
H    2.84865904   1.25447953  -1.68121934
H    3.74556875   4.03803873  -1.00981963
H    4.78236818   2.60658908  -1.26275945
H    5.57627821   2.79467893   1.16292953
H    4.95908785   5.70129776   0.36696985
H    6.06590796   5.09847832   1.73050940

