%chk=mol_4524.chk
# wB97XD/Def2SVP opt freq pop=full gfinput

C 4 H 10 N 2 O 1

1 2
C    2.23805928  -1.00155962   1.09472954
C    2.19598937  -0.09194997  -0.11965995
C    2.78100896   1.27108955   0.20506991
N    2.06050920   2.16546941   0.81094974
N    4.07566833   1.57659936  -0.13709995
O    4.95828819   0.50062984   0.00411000
C    5.69868803   0.42335984  -1.21171963
H    1.82173932  -1.98280919   0.84860963
H    1.65550935  -0.58029979   1.92130923
H    3.26253867  -1.14315951   1.45005941
H    1.16039956   0.03987999  -0.45165983
H    2.74889898  -0.54355979  -0.95047963
H    1.12394953   1.79292929   0.99991965
H    4.38522816   2.41367888   0.35340986
H    6.38719749  -0.42260987  -1.13799965
H    6.28197765   1.33721960  -1.36536956
H    5.02840805   0.25218990  -2.06062913

