%chk=mol_4253.chk
# wB97XD/Def2SVP opt pop=full gfinput

C 5 H 3 N 1 O 1

1 2
C    1.735865   0.046431  -0.003553
C    4.004424   0.026362  -0.001172
C    6.687986   0.000246   0.001644
C    8.252472   2.060727   0.003685
O   10.696153   1.274148   0.006104
N   10.763824  -1.349907   0.005669
C    8.343519  -2.074352   0.002967
H   -0.277317   0.064610  -0.005669
H    7.973832   4.081563   0.003779
H    7.910186  -4.070035   0.002135

