%chk=mol_2822.chk
# wB97XD/Def2SVP opt pop=full gfinput

C 6 H 4 O 1

1 2
C    1.889726   0.000000   0.000000
C    4.618491   0.000000   0.000000
C    6.867567   0.000000   0.000000
C    9.761663   0.018236  -0.000000
C   12.029713   0.038399  -0.000000
C   14.748122   0.056900  -0.000000
O   15.923947   2.043814  -0.000000
H    1.144985   1.929127   0.022072
H    1.144985  -0.983678   1.659633
H    1.144985  -0.945449  -1.681705
H   15.664016  -1.812304  -0.000000

