%chk=mol_4173.chk
# wB97XD/Def2SVP opt pop=full gfinput

C 4 H 7 N 1 O 2

1 2
C    1.996439   0.056503   0.221098
C    4.804232   0.089233  -0.233287
N    5.931227   2.265139  -0.395954
O    8.554658   2.124676  -0.914495
C    9.767239  -0.044957   0.135456
O    8.773696  -2.313063  -0.902042
C    6.163908  -2.439183  -0.372862
H    1.288302  -1.882583   0.272026
H    1.043979   1.082813  -1.299262
H    1.583553   0.974948   2.025768
H   11.773315   0.055388  -0.349958
H    9.605969  -0.038437   2.202249
H    5.908853  -3.396953   1.445168
H    5.260544  -3.601024  -1.826175

