%chk=mol_0647.chk
# wB97XD/Def2SVP opt pop=full gfinput

C 4 H 8 O 2

1 2
C    1.926935   0.098757   0.234572
C    4.756025  -0.169830  -0.091690
O    6.111658   1.807391   1.246841
C    7.788544  -0.050607   2.354410
C    6.082461  -2.232560   1.488084
O    7.252712  -4.293968   0.135134
H    0.942331  -1.492940  -0.650066
H    1.250186   1.837437  -0.660214
H    1.387475   0.155562   2.232768
H    5.297261  -0.168072  -2.092531
H    9.664060   0.024888   1.486307
H    7.955785   0.181092   4.401494
H    4.915915  -2.975979   3.029174
H    8.257177  -3.508201  -1.189394

