%chk=mol_5326.chk
# wB97XD/Def2SVP opt freq pop=full gfinput

C 5 H 8 N 2

1 2
C    1.05028963  -0.06611998  -0.29878989
C    2.37222910   0.14807993   0.35133988
C    3.49144864   0.92699963  -0.27002990
C    3.56469870   1.21742952  -1.74407935
N    3.68321872  -0.11532996  -2.39044905
C    3.70285845  -0.95454967  -1.39919949
N    3.58410859  -0.54368979  -0.09359996
H    0.37479985   0.75535971  -0.03970999
H    0.60175979  -0.99605960   0.06571998
H    1.09781969  -0.12335995  -1.38979948
H    2.28525925   0.17431992   1.43168950
H    4.19561815   1.47168946   0.34103987
H    4.44726849   1.81950939  -1.98308933
H    2.66758919   1.73427927  -2.09890914
H    3.84587860  -2.03833914  -1.52578950

