%chk=mol_1218.chk
# wB97XD/Def2SVP opt pop=full gfinput

C 5 H 12 N 2

1 2
C    1.798226  -0.209533  -0.362695
C    4.642793   0.110870  -0.039250
C    6.128760  -1.451215  -1.950046
C    5.387968   2.898405  -0.171285
C    5.029941   4.312147  -2.636508
N    6.323458   3.906177   1.873172
N    7.008824   6.359061   1.710826
H    0.767210   0.984963   0.977045
H    1.243421  -2.174848  -0.027288
H    1.173558   0.306211  -2.266311
H    5.141340  -0.573381   1.855446
H    5.620329  -0.975798  -3.898467
H    5.767690  -3.470784  -1.678833
H    8.162634  -1.129338  -1.739455
H    3.993124   3.175855  -4.011511
H    6.880172   4.775074  -3.433651
H    3.961792   6.050960  -2.308452
H    7.371141   7.031860   3.487263
H    8.690719   6.532462   0.773956

