%chk=mol_6915.chk
# wB97XD/Def2SVP opt freq pop=full gfinput

C 6 H 13 N 1

1 2
C    2.29367900  -0.51602978  -1.40629947
C    2.44239902   0.03472999   0.00360000
C    3.26514888   1.31677949  -0.01260000
C    2.57855892   2.59187913  -0.56602979
C    3.25356889   3.30264878   0.62135977
N    3.26373887   1.99236929   1.32022941
C    4.53599787   1.78690934   2.00451922
H    1.72094929  -1.44841945  -1.39186943
H    3.27185893  -0.72146970  -1.85228932
H    1.77192926   0.19504993  -2.05471921
H    2.93832898  -0.71865976   0.62774980
H    1.44770944   0.20663992   0.43148983
H    4.26423836   1.16029954  -0.44491985
H    1.48263943   2.58703923  -0.51662982
H    2.89363909   2.91545892  -1.56099939
H    4.23644876   3.72568846   0.37628984
H    2.64899898   4.07436848   1.10654950
H    4.60577822   0.75316972   2.35884905
H    4.59333849   2.43656921   2.88467908
H    5.41280794   1.98918927   1.37798953

