%chk=mol_2412.chk
# wB97XD/Def2SVP opt pop=full gfinput

C 6 H 8 O 1

1 2
C    1.746277  -0.001134  -0.335030
C    4.625879   0.001002  -0.115141
C    5.516526   2.368734   1.198067
C    6.872537   2.262342   3.333364
O    7.573626   0.044220   4.504011
C    6.873746  -2.195314   3.374219
C    5.517679  -2.341484   1.241456
H    1.080111  -1.687147  -1.336792
H    1.082586   1.654115  -1.388533
H    0.835958   0.028535   1.526634
H    5.436553  -0.016667  -2.023027
H    5.047799   4.185233   0.370235
H    7.562684   3.888792   4.358540
H    7.565008  -3.802318   4.428706
H    5.050236  -4.173026   0.446901

