%chk=mol_6936.chk
# wB97XD/Def2SVP opt freq pop=full gfinput

C 5 H 6 N 2

1 2
C    0.99999964   0.00000000   0.00000000
C    2.19015908   0.00000000   0.00000000
C    3.63415861   0.00000000   0.00000000
C    4.20418835  -1.19230950  -0.75600970
C    4.51006842  -0.53923976  -2.06362939
N    4.47313833   0.75207973  -2.06603909
N    4.16962862   1.11086953  -0.79178971
H   -0.06585998   0.00534000  -0.00512000
H    4.01801872   0.03492999   1.02454960
H    3.51006866  -2.02479935  -0.89846969
H    5.14476776  -1.55578935  -0.33056989
H    4.77319813  -1.14156961  -2.94397879
H    3.58555865   1.94663930  -0.74616975

