%chk=mol_5986.chk
# wB97XD/Def2SVP opt freq pop=full gfinput

C 4 H 3 N 1 O 2

1 2
O    1.00909960  -0.01848999  -0.24943991
C    2.22427917  -0.04394998  -0.07532997
O    2.92234898  -1.21109962   0.02408999
N    4.32750845  -1.20224953   0.22306992
C    4.90756798  -0.05576998   0.30666989
C    4.26501846   1.24797952   0.21747991
C    2.95065880   1.22155952   0.03008999
H    5.99908781  -0.03155999   0.46107984
H    4.85034847   2.15166926   0.30232987
H    2.35904908   2.12428904  -0.05285998

