%chk=mol_3047.chk
# wB97XD/Def2SVP opt pop=full gfinput

C 6 H 10 O 1

1 2
C    1.016578   1.457262   0.625556
C    3.830437   1.454409   0.799392
C    5.299737   3.331266  -0.040535
O    7.881367   3.240956   0.177634
C    9.301044   5.201188  -0.752583
C   11.817119   5.245086  -0.519731
C   13.455663   7.320421  -1.497324
H    0.374109  -0.180979  -0.460451
H    0.292813   3.163779  -0.293078
H    0.193621   1.346033   2.519515
H    4.708971  -0.186403   1.669516
H    4.552501   5.015995  -0.920864
H    8.246179   6.684698  -1.679891
H   12.756294   3.687838   0.436300
H   12.362418   8.796146  -2.449350
H   14.824807   6.560449  -2.848025
H   14.495938   8.192605   0.062512

