%chk=mol_5111.chk
# wB97XD/Def2SVP opt pop=full gfinput

C 4 H 7 N 1 O 2

1 2
C    3.170034  -1.343557  -3.022749
N    5.633935  -0.384710  -2.315614
C    6.003055   1.789627  -0.943861
C    8.198785   2.991096  -0.584719
C    8.258746   5.315044   0.954085
O   10.642447   6.008592   1.532643
O    6.402619   6.492929   1.638411
H    3.364280  -3.233303  -3.838582
H    2.288099  -0.111513  -4.429915
H    1.928673  -1.480241  -1.373472
H    7.084640  -0.919314  -3.456441
H    4.272520   2.515282  -0.086455
H    9.928262   2.286663  -1.406996
H   11.953557   4.843179   0.977347

