%chk=mol_3771.chk
# wB97XD/Def2SVP opt pop=full gfinput

C 5 H 10 O 2

1 2
O    1.688206   1.000175  -1.185161
C    4.266850   0.690317  -0.481502
C    5.621123   3.206506  -0.818667
C    8.394201   3.057804  -0.015723
O    9.652381   1.175655  -1.469489
C    9.689570   5.580796  -0.301147
C   11.804571   6.081025  -1.602998
H    0.887982  -0.647326  -1.021246
H    5.093077  -0.777169  -1.682669
H    4.335221   0.068106   1.490314
H    4.627372   4.671441   0.261292
H    5.473667   3.764580  -2.811553
H    8.513443   2.486180   1.971306
H    9.604231   1.738302  -3.218865
H    8.795371   7.139744   0.703734
H   12.844298   4.622667  -2.606556
H   12.573955   7.981164  -1.656080

