%chk=mol_4277.chk
# wB97XD/Def2SVP opt pop=full gfinput

C 5 H 9 N 1 O 1

1 2
C    4.782349  -1.008793  -2.867867
C    4.592904   0.128539  -0.234950
C    6.441169   2.310323   0.079161
N    5.639226   4.662540  -1.211050
C    5.815405   6.236361   1.081169
C    6.222566   3.786936   2.569309
O    6.317808   3.244452   4.793045
H    3.497808  -2.619803  -3.048090
H    6.705334  -1.669063  -3.253352
H    4.284274   0.375281  -4.322559
H    5.028712  -1.344805   1.155152
H    2.642876   0.732628   0.123172
H    8.404463   1.782484  -0.326091
H    3.857441   4.591826  -1.948799
H    7.437244   7.513740   1.117622
H    4.085758   7.251238   1.569077

