%chk=mol_2134.chk
# wB97XD/Def2SVP opt freq pop=full gfinput

C 5 H 6 N 2

1 2
N    0.91343969   0.03472999   0.15120995
N    2.26478910  -0.03595999   0.07685997
C    2.88562894   1.09693968   0.05694998
C    2.35842896   2.48034906   0.12298995
C    3.43032861   3.27345896   0.05149998
C    4.63234806   2.49903917  -0.05176998
C    4.35603857   1.19338965  -0.04652998
H    0.53701979  -0.91003966   0.26116991
H    0.52403980   0.37414986  -0.73159975
H    1.32144952   2.74498892   0.22117992
H    3.41284871   4.35288858   0.07886997
H    5.62035799   2.92968893  -0.11665995
H    5.02039814   0.35047987  -0.10447996

