%chk=mol_4936.chk
# wB97XD/Def2SVP opt pop=full gfinput

C 4 H 10 N 2 O 1

1 2
C   12.218081   2.756128   5.783639
C   12.989222   4.222253   3.446256
O   10.892438   5.746166   2.678158
N   11.611176   6.961430   0.440363
C   11.494467   9.555494   0.591673
C   11.222422  11.030615  -1.829330
N   11.571001  10.796100   2.698000
H   13.777162   1.585348   6.469307
H   10.597584   1.535516   5.373814
H   11.633325   4.044505   7.294135
H   13.502850   2.906815   1.930676
H   14.609907   5.436421   3.880364
H   10.820591   6.182126  -1.130510
H    9.221901  11.435885  -2.145330
H   11.955428   9.946442  -3.428190
H   12.258465  12.815405  -1.692892
H   11.695401   9.457720   4.098759

