%chk=mol_4854.chk
# wB97XD/Def2SVP opt pop=full gfinput

C 5 H 11 N 1 O 1

1 2
C    1.428935   3.649628   1.091506
C    4.087175   4.716416   0.948435
O    5.765857   2.695543   0.333480
C    8.266003   3.276520   0.053234
C    9.418395   5.527052   0.224348
C   12.197955   5.881300  -0.122946
N   12.649336   7.527119  -2.275117
H    0.068862   5.121253   1.599899
H    1.324396   2.128323   2.492171
H    0.875359   2.830602  -0.727828
H    4.600689   5.527732   2.782433
H    4.153467   6.180028  -0.513873
H    9.291009   1.551201  -0.375186
H    8.360205   7.232341   0.648649
H   13.170238   4.076328  -0.405932
H   12.983798   6.750045   1.581946
H   12.003238   6.654330  -3.865832
H   14.546470   7.729263  -2.520649

