%chk=mol_2186.chk
# wB97XD/Def2SVP opt freq pop=full gfinput

C 5 H 8 O 2

1 2
C   -1.80303931   0.65497971   0.28697991
O   -1.74715936  -0.78208971  -0.23171991
C   -0.36351988  -0.71004975   0.22181992
C    0.90421969  -1.00680959  -0.53114980
C    1.79640937   0.17579994  -0.01713999
O    0.86138964   1.27137947   0.24093992
C   -0.38622987   0.77084976  -0.25050992
H   -2.56394911   1.22873962  -0.24678990
H   -1.96636915   0.69606972   1.36940944
H   -0.28311992  -0.90367967   1.30210960
H    1.34625947  -1.97412932  -0.27721989
H    0.77660972  -0.96132964  -1.61948943
H    2.28363895  -0.07365997   0.93005967
H    2.53787899   0.48446980  -0.75867975
H   -0.42988983   0.94295967  -1.33876956

