%chk=mol_4105.chk
# wB97XD/Def2SVP opt pop=full gfinput

C 5 H 8 N 2

1 2
C   -2.477261   1.245632   0.065800
C   -1.937461  -1.483832  -0.284234
N   -0.623402  -2.980911   1.614110
C    0.855139  -2.043777  -0.522358
C    2.152247   0.557507  -0.542125
N    2.021950   2.329617   1.571629
C    0.024302   2.451825  -0.316548
H   -3.820195   1.902841  -1.364798
H   -3.264218   1.652679   1.935514
H   -3.266448  -2.471800  -1.481451
H   -0.245683  -1.974197   3.208415
H    1.442182  -3.439169  -1.901556
H    3.611834   0.910281  -1.934097
H    1.455448   1.443807   3.181713
H    0.005575   4.091540  -1.535478

