%chk=mol_6893.chk
# wB97XD/Def2SVP opt freq pop=full gfinput

C 5 H 8 N 2

1 2
C    0.92312962   0.01799999   0.18382993
C    2.43613887   0.02869999  -0.02200999
N    2.77995896   1.18192959  -0.86348969
N    3.93512845   1.22399950  -1.57767940
C    4.38494873   0.07149997  -1.96948934
C    3.81925845  -1.25428951  -1.63142931
C    2.90319896  -1.25464952  -0.65520972
H    0.58563977   0.94225961   0.66649973
H    0.62193978  -0.81775969   0.82556969
H    0.38573983  -0.08181997  -0.76667970
H    2.92905903   0.13003995   0.95216960
H    2.61808896   2.06058908  -0.37155986
H    5.29242802   0.04546998  -2.59340906
H    4.20083857  -2.13941908  -2.11613917
H    2.49084926  -2.19274902  -0.29579988

