%chk=mol_5749.chk
# wB97XD/Def2SVP opt pop=full gfinput

C 6 H 11 N 1

1 2
C    2.079360   0.335351   0.271384
C    4.856880  -0.159077  -0.349996
C    5.357260  -2.924294  -1.059626
C    5.204362  -2.956288  -3.923317
C    6.122240  -0.378361  -4.619662
C    4.369557   1.840064  -4.655000
N    5.932625   1.378064  -2.432852
H    1.742063   2.347286   0.608983
H    1.546193  -0.688182   1.989617
H    0.807801  -0.303811  -1.224599
H    5.944474   0.277317   1.360641
H    4.047964  -4.263260  -0.183474
H    7.278072  -3.444593  -0.477477
H    6.380169  -4.451798  -4.731345
H    3.255280  -3.241523  -4.564237
H    7.890079  -0.326450  -5.640889
H    4.912683   3.459352  -5.785624
H    2.352690   1.534722  -4.577465

