%chk=mol_4311.chk
# wB97XD/Def2SVP opt freq pop=full gfinput

C 5 H 9 N 1 O 1

1 2
C    0.84345973  -0.13327995   0.18213993
C    2.33108926   0.01376999   0.22952992
C    3.05369878   1.13093960   0.01116000
C    2.52381897   2.49993920  -0.29476988
C    4.54299831   1.07647955   0.12412996
N    5.13626814  -0.02478999  -0.40995985
O    5.20215797   1.99781930   0.58730978
H    0.57674980  -0.91832966  -0.53295976
H    0.31949988   0.77633971  -0.11488996
H    0.47121984  -0.43106982   1.16720963
H    2.84778881  -0.90510964   0.50323981
H    1.44119942   2.52337909  -0.43661982
H    2.97685885   2.88309884  -1.21527958
H    2.76106906   3.19262886   0.52010977
H    4.62729788  -0.71238977  -0.94635963
H    6.14716768  -0.04410999  -0.42581984

