%chk=mol_1173.chk
# wB97XD/Def2SVP opt pop=full gfinput

C 6 H 15 N 1

1 2
C    6.634961  -2.090264  -0.802907
C    5.339081  -0.317247   1.055072
C    6.244505   2.455661   0.876115
C    4.556489   4.097096   2.574922
C    9.111315   2.778748   1.422435
C   10.017590   5.502448   1.056584
N    9.801991   1.913990   3.959316
H    5.748774  -3.958598  -0.731078
H    8.636710  -2.338423  -0.353738
H    6.475430  -1.382448  -2.739744
H    5.593041  -1.041844   2.979720
H    3.301692  -0.381895   0.672554
H    5.917337   3.083372  -1.076483
H    4.736523   3.577932   4.569036
H    2.565908   3.873107   2.049673
H    5.005336   6.105327   2.380753
H   10.162929   1.620497   0.066103
H    9.249831   6.784117   2.488505
H    9.466980   6.213174  -0.807877
H   12.083060   5.607176   1.178679
H    8.971135   3.037017   5.285016
H   11.700712   2.116399   4.216338

