%chk=mol_6677.chk
# wB97XD/Def2SVP opt freq pop=full gfinput

C 5 H 10 N 2

1 2
C    0.97643965   0.04976998  -0.03008999
C    2.50400901  -0.01578999   0.00764000
C    3.02528882   0.00726000   1.43886948
C    3.04648900  -1.22305954  -0.80285972
N    3.46650863  -0.68401974  -2.13477921
C    3.44931865   0.60077977  -1.96048927
N    3.06737900   1.08983958  -0.75199974
H    0.59891981   0.05150998  -1.05899966
H    0.60983974   0.96359968   0.45086983
H    0.53390980  -0.80710965   0.48888984
H    4.12094831   0.00300000   1.46600938
H    2.67028904  -0.86333966   2.00055909
H    2.69342899   0.90975970   1.96455920
H    2.28923893  -2.00210929  -0.94018960
H    3.92369866  -1.67748940  -0.32750988
H    3.69425869   1.34315956  -2.73600888
H    2.59526896   1.98575926  -0.72680974

