%chk=mol_5853.chk
# wB97XD/Def2SVP opt freq pop=full gfinput

C 5 H 5 N 1 O 1

1 2
N    1.30180955  -0.14887995  -0.84815967
C    2.53329921  -0.14639995  -0.27394989
O    3.00590873  -1.14457953   0.25049990
C    3.22610879   1.15604961  -0.34689987
C    4.44825840   1.28311944   0.18480992
C    5.14813805   2.51844883   0.13558996
C    5.74363804   3.55892849   0.09693996
H    0.88016969   0.65462977  -1.28961957
H    0.78230965  -1.01692963  -0.82652974
H    2.72637892   1.98397923  -0.83202964
H    4.93748808   0.44120982   0.66928977
H    6.27625751   4.48104858   0.06495997

