%chk=mol_5646.chk
# wB97XD/Def2SVP opt freq pop=full gfinput

C 5 H 5 N 1 O 1

1 2
N    0.99999964   0.00000000   0.00000000
C    2.15100908   0.00000000   0.00000000
C    3.55700850   0.00000000   0.00000000
C    4.33571815  -1.07226956  -0.08723997
O    5.69481802  -0.83178967  -0.09942997
C    5.77697802   0.60237974  -0.26251990
C    4.41550827   1.20243955   0.07974997
H    4.06049871  -2.11337924  -0.13258995
H    6.04814768   0.80848968  -1.30599952
H    6.57058764   0.99401963   0.38074985
H    4.13897848   1.99013937  -0.62707978
H    4.41060829   1.61821938   1.09295964

