%chk=mol_6824.chk
# wB97XD/Def2SVP opt freq pop=full gfinput

C 5 H 8 N 2

1 2
C    0.83686972   0.03073999   0.10183996
C    2.17594910   0.00293000  -0.00493000
C    3.00295877   1.24898958  -0.15984994
N    4.30980825   1.05464959   0.47024983
N    5.08300781   0.01734999   0.05768998
C    4.43325853  -1.09150958  -0.14110994
C    2.94403887  -1.28980958   0.05209998
H    0.28392988   0.96503967   0.06933998
H    0.25944990  -0.88163966   0.22359991
H    2.50708890   2.10580921   0.30844989
H    3.13844872   1.47522950  -1.22348952
H    4.84409809   1.92451930   0.43025985
H    5.01072788  -1.98182929  -0.43821982
H    2.60101914  -1.96911919  -0.73649973
H    2.80385900  -1.78655934   1.01860964

