%chk=mol_3253.chk
# wB97XD/Def2SVP opt freq pop=full gfinput

C 7 H 10

1 2
C    0.99999964   0.00000000   0.00000000
C    2.44399905   0.00000000   0.00000000
C    3.63415861   0.00000000   0.00000000
C    5.07815790   0.00000000   0.00000000
C    5.62237787   1.40995944  -0.04509998
C    5.48307800   2.14239907  -1.35158944
C    6.23268747   1.97328925   1.01217961
H    0.60611975   1.02093959   0.01054000
H    0.60590976  -0.51952982   0.87881970
H    0.60594976  -0.50119984  -0.88941967
H    5.46591806  -0.56268984  -0.85750967
H    5.44557810  -0.52198982   0.89221966
H    5.96288776   1.57648945  -2.15698910
H    5.95162773   3.13201880  -1.31880951
H    4.42811823   2.28503919  -1.60636950
H    6.34144735   1.44372952   1.95431924
H    6.63077736   2.98260903   0.96785963

