%chk=mol_5661.chk
# wB97XD/Def2SVP opt freq pop=full gfinput

C 4 H 8 N 2 O 1

1 2
N    2.41683912  -0.41488984  -1.57645941
C    2.42910910   0.05972998  -0.19444993
C    3.33751869   1.26639950  -0.03612999
C    3.42919874   1.75077939   1.39257956
O    3.54963875   3.17387891   1.29493952
N    2.89985895   3.57164860   0.10105997
C    2.77691889   2.50977898  -0.62277979
H    1.78245938  -1.21110952  -1.65635943
H    3.33854866  -0.77019972  -1.83381939
H    2.76528907  -0.75416970   0.45744982
H    1.40091944   0.31033990   0.09122997
H    4.32981825   1.09747958  -0.46954983
H    4.30397844   1.34503961   1.90895927
H    2.53469896   1.52303946   1.98324931
H    2.34507918   2.51799893  -1.63337934

