%chk=mol_6873.chk
# wB97XD/Def2SVP opt freq pop=full gfinput

C 5 H 8 N 2

1 2
C    0.98461962  -0.10136996   0.13535996
C    2.44987917   0.21722992  -0.09305996
N    2.84046912   1.41842949   0.69919974
C    3.88000846   1.03363967   1.37731957
N    4.33370829  -0.26428992   1.33663940
C    3.42581868  -1.31042957   1.81295931
C    3.38062882  -0.87142968   0.38302988
H    0.69975978  -1.01885962  -0.38985986
H    0.35266986   0.71522975  -0.22896992
H    0.75801969  -0.23924990   1.19804955
H    2.62977910   0.42395982  -1.15421963
H    4.47069836   1.70453930   2.02017927
H    3.93632865  -2.23253918   2.05451918
H    2.68217921  -0.97001964   2.52099895
H    3.85741854  -1.45041943  -0.39340985

