%chk=mol_0391.chk
# wB97XD/Def2SVP opt freq pop=full gfinput

C 5 H 11 N 1

1 2
C    0.94773960  -0.09092997  -0.10354996
C    2.47212887  -0.01184000   0.07579997
C    2.87004876  -0.78610975   1.34304953
N    3.12073898  -0.66277975  -1.06719959
C    2.89726877   1.44065952   0.07044997
C    3.49494863   2.12906933   1.05433965
H    0.61808980   0.41333982  -1.02073967
H    0.42629984   0.38366985   0.73697972
H    0.60427976  -1.13113964  -0.15886994
H    2.39835930  -0.35977986   2.23682904
H    3.95572853  -0.77871972   1.49991941
H    2.55624914  -1.83580935   1.28471947
H    2.75332904  -0.27761990  -1.93482935
H    2.87992883  -1.65200937  -1.07831955
H    2.68751884   1.98593926  -0.85011965
H    3.75385857   1.68142939   2.00721931
H    3.75240850   3.17463899   0.91489965

