%chk=mol_5135.chk
# wB97XD/Def2SVP opt pop=full gfinput

C 5 H 11 N 1 O 1

1 2
C    2.249039   0.061624   1.184159
N    4.998061   0.122171   1.043866
C    5.871360   2.470741  -0.186667
C    8.795371   2.513109  -0.396899
O    9.843527   2.013069   2.038296
C    9.784303   0.642186  -2.310171
C   11.420371  -1.242268  -1.872681
H    1.643400  -1.692439   2.099448
H    1.390593   0.124552  -0.698745
H    1.521532   1.636389   2.312930
H    5.608934  -1.385698   0.002249
H    5.287699   4.074495   0.990708
H    5.018924   2.691802  -2.062712
H    9.407642   4.409033  -0.961304
H    8.620401   0.877400   2.835950
H    9.097992   0.899207  -4.231493
H   12.203247  -1.570627  -0.003307
H   12.037102  -2.480228  -3.385955

