%chk=mol_1674.chk
# wB97XD/Def2SVP opt freq pop=full gfinput

C 5 H 8 N 2

1 2
C    2.91392899  -1.09932959  -0.48458982
N    2.35348916   0.08522997   0.15648994
C    3.31095886   1.20165956   0.19312993
C    3.43331885   2.09658909  -1.00749958
C    2.78706884   2.61903906   0.24983990
C    3.48646855   3.58278871   1.04845965
N    4.05928850   4.35821867   1.69538939
H    2.16363907  -1.89564931  -0.50253981
H    3.78967857  -1.46840954   0.05896998
H    3.20034862  -0.88964969  -1.52014935
H    2.05799937  -0.16459994   1.10194957
H    4.22966862   0.99418968   0.74125975
H    2.79112887   1.90657926  -1.86020923
H    4.42354822   2.44837904  -1.27482951
H    1.71009934   2.74832892   0.22088993

