%chk=mol_5238.chk
# wB97XD/Def2SVP opt freq pop=full gfinput

C 4 H 10 N 2 O 1

1 2
C    3.91349864  -1.33952951  -0.65837973
N    4.66935825  -0.24735992  -0.04961998
N    4.16836834   0.99137962  -0.26893988
C    5.06301832   1.92143917  -0.12861995
C    4.69772816   3.37722898  -0.35568985
C    4.99403811   3.76390862  -1.79345930
O    3.32557869   3.60997868  -0.07765997
H    4.39922857  -2.29388928  -0.43494985
H    3.88019848  -1.22454953  -1.74591935
H    2.88976908  -1.37245953  -0.27244988
H    4.71958828  -0.43222982   0.95675963
H    6.12143803   1.70412934   0.10475996
H    5.29404831   3.98645854   0.32925987
H    4.35441828   3.20862865  -2.48997927
H    6.03833771   3.56380868  -2.05601931
H    4.78785801   4.82787848  -1.95459926
H    2.85772896   2.80168891  -0.37016988

