%chk=mol_5541.chk
# wB97XD/Def2SVP opt freq pop=full gfinput

C 5 H 9 N 1 O 1

1 2
N    0.96344966   0.08723997  -0.22566991
C    2.37229919  -0.01300000   0.14695995
C    3.14156890   1.25048947  -0.25066993
C    3.53997874   1.18829954  -1.71936929
O    4.36174822   0.04770998  -2.00998926
C    3.89979863  -1.12111950  -1.46610951
C    2.96946883  -1.21623957  -0.50854981
H    0.54445976   0.88553965   0.24824992
H    0.46627980  -0.73345971   0.11668995
H    2.43259907  -0.12924996   1.23552954
H    2.56008911   2.15666914  -0.04537999
H    4.05244827   1.31033945   0.35968986
H    4.11999846   2.07938933  -1.98221922
H    2.66166902   1.16793954  -2.37649918
H    4.39858866  -1.97486925  -1.90643930
H    2.66467905  -2.19719911  -0.15853994

