%chk=mol_0729.chk
# wB97XD/Def2SVP opt freq pop=full gfinput

C 4 H 8 O 2

1 2
C    0.68774974  -0.68320972  -0.30461988
C    2.09000921  -0.18569992   0.00793000
C    2.16177917   1.33882952  -0.01820999
C    3.55222869   1.84415936   0.29089990
O    3.62759876   3.19493866   0.24494991
O    4.51758862   1.14635956   0.55772978
H    0.65990978  -1.77720928  -0.28210989
H    0.36779988  -0.35561988  -1.29887950
H   -0.03341999  -0.30983990   0.42938983
H    2.79354906  -0.60601974  -0.72047973
H    2.39439917  -0.55841982   0.99305964
H    1.47434950   1.75491941   0.72622973
H    1.87838924   1.70413935  -1.01166964
H    2.78216887   3.62763858   0.02104999

