%chk=mol_5711.chk
# wB97XD/Def2SVP opt pop=full gfinput

C 5 H 11 N 1 O 1

1 2
N    3.700745  -0.977083   2.986674
C    3.975870  -0.100420   0.372805
C    6.428432   1.390064  -0.056182
C    8.810905  -0.183001   0.168242
C    9.933308  -1.174786  -1.885795
C    9.938334  -0.483978   2.764254
O    8.627356  -2.364312   4.146872
H    2.089735  -2.037994   3.111982
H    3.401016   0.545394   4.136630
H    2.356356   1.104337  -0.091916
H    3.909409  -1.733767  -0.898225
H    6.527190   3.000337   1.246199
H    6.338689   2.227156  -1.953788
H    9.145632  -0.943521  -3.764996
H   11.647743  -2.291293  -1.724999
H    9.858758   1.298242   3.811502
H   11.927007  -1.041919   2.669333
H    6.818529  -2.130232   3.791188

