%chk=mol_4981.chk
# wB97XD/Def2SVP opt pop=full gfinput

C 4 H 6 N 2 O 1

1 2
C    1.842162   0.063646  -0.014986
N    4.552104   0.021429   0.002551
C    6.137679   2.083763   0.005783
C    8.532170   1.261071   0.016932
N    8.518583  -1.330405   0.019407
C    6.011068  -2.207389   0.009033
O    5.310036  -4.397487   0.005556
H    1.137558   2.006284   0.013549
H    1.145571  -0.960888   1.639508
H    1.169381  -0.903762  -1.713112
H    5.441202   3.999870   0.000038
H   10.265030   2.334719   0.022601
H   10.027416  -2.493626   0.025587

