%chk=mol_4252.chk
# wB97XD/Def2SVP opt freq pop=full gfinput

C 5 H 5 N 1 O 1

1 2
C    2.67276883  -1.16748953   0.38315985
C    2.21372914   0.07166997   0.16329995
C    3.00835896   1.24725950   0.07171997
C    2.53112912   2.51413918  -0.15374994
O    3.56521869   3.39328885  -0.18057993
N    4.75355816   2.71113896   0.02918999
C    4.40149832   1.43045950   0.17779994
H    1.98432922  -2.00608921   0.43697983
H    3.72669864  -1.38910949   0.51463979
H    1.13733959   0.19114994   0.04448998
H    1.55292952   2.94429874  -0.30770990
H    5.17702818   0.69931978   0.35541987

