%chk=mol_3837.chk
# wB97XD/Def2SVP opt freq pop=full gfinput

C 5 H 9 N 1 O 1

1 2
C   -0.93540967  -0.06091998  -1.11914957
C   -0.54462975   1.04387963  -0.09207997
C   -1.13978946   0.03378999   0.92533970
N   -0.68514973  -1.05697966  -0.01435000
C    0.78757966  -1.21210957   0.16434994
C    1.64401937   0.05254998  -0.10682996
O    0.88531971   1.26081955   0.06354997
H   -1.98118925  -0.02586999  -1.45099950
H   -0.30363989  -0.16194995  -2.00761938
H   -1.07603955   1.99433923  -0.18319993
H   -0.68916970   0.02469999   1.92320931
H   -2.22958922   0.08847997   1.04239964
H    0.97122967  -1.55117941   1.19196963
H    1.14303958  -2.02463937  -0.48014984
H    2.01218939   0.04369998  -1.13871968
H    2.50777912   0.08709996   0.56391978

