%chk=mol_4159.chk
# wB97XD/Def2SVP opt pop=full gfinput

C 4 H 6 N 2 O 1

1 2
C    2.147088   0.156639   0.010677
C    4.918466   0.341851   0.000605
C    6.639005   2.276704  -0.000246
C    6.267655   5.034854   0.009505
N    9.009383   1.246123  -0.011697
N    8.818029  -1.258350  -0.018122
O    6.250250  -1.856769  -0.010356
H    1.519774  -1.813910  -0.006803
H    1.353422   1.095115  -1.652433
H    1.368162   1.061025   1.699412
H    4.260199   5.530926  -0.003609
H    7.149760   5.885231  -1.656383
H    7.124438   5.869565   1.696369

