%chk=mol_5031.chk
# wB97XD/Def2SVP opt freq pop=full gfinput

C 4 H 6 N 2 O 1

1 2
C    3.06387877  -1.11869955   0.34610987
N    2.43052912   0.07598997  -0.16976994
C    3.06277895   1.26375949  -0.09548996
C    2.64967918   2.56926894  -0.24949990
N    3.70612860   3.42800879  -0.07034997
C    4.70946836   2.61551905   0.17397992
O    4.40005827   1.29033959   0.17816994
H    2.42988896  -1.98652923   0.13905995
H    3.20197868  -1.05106962   1.43012941
H    4.03361845  -1.29592943  -0.13084994
H    1.41516948   0.06484997  -0.15238994
H    1.65772939   2.92940903  -0.47860983
H    5.74090767   2.86960912   0.37131986

