%chk=mol_3897.chk
# wB97XD/Def2SVP opt freq pop=full gfinput

C 5 H 7 N 1 O 1

1 2
C    1.03677964  -0.08779997  -0.00601000
C    2.49814916   0.11226996   0.00079000
C    3.30810881   1.22806954   0.00574000
C    4.64179802   0.74966973   0.00732000
C    4.55603838  -0.61974972   0.00061000
N    5.47355795  -1.58769941  -0.00865000
O    3.26116896  -1.01774967  -0.00046000
H    0.50928980   0.87097973   0.00281000
H    0.72393972  -0.65714979   0.87428963
H    0.72994971  -0.63739973  -0.90076965
H    2.97781897   2.25742912   0.00576000
H    5.55095768   1.33314943   0.00921000
H    5.18635798  -2.55842900   0.03775999
H    6.46702766  -1.40537953   0.04828998

