%chk=mol_3016.chk
# wB97XD/Def2SVP opt freq pop=full gfinput

C 5 H 10 O 2

1 2
C    0.86854970  -0.01957999   0.04064999
C    2.38870907  -0.03164999   0.05389998
C    2.96023893   1.38050950  -0.03259999
C    4.48677826   1.36806941  -0.04126998
O    4.98823833   2.70872879  -0.15597995
C    5.16049814   3.37198877   1.01244962
O    4.92629814   2.95352888   2.13433909
H    0.48072982  -1.04104960   0.10719997
H    0.48787981   0.42849985  -0.88294965
H    0.47268981   0.54996979   0.88769966
H    2.75035906  -0.63275975  -0.78805965
H    2.73631907  -0.51738977   0.97285962
H    2.59940886   1.98458934   0.80911970
H    2.59852910   1.88359928  -0.93847966
H    4.85137844   0.81748968  -0.91527969
H    4.89454842   0.86785966   0.84479970
H    5.55214787   4.37826824   0.79748964

