%chk=mol_6584.chk
# wB97XD/Def2SVP opt freq pop=full gfinput

C 4 H 5 N 1 O 1 S 1

1 2
C    0.86559969  -0.10743997  -0.01043000
N    2.30379915  -0.00888000   0.08898997
S    3.09608889   1.46233940  -0.01868999
C    4.69187832   0.70601970  -0.01865999
O    5.76061773   1.28827953  -0.04422998
C    4.51673794  -0.75602967   0.00777000
C    3.21017885  -1.03977954   0.05055998
H    0.37451985   0.86990970   0.05502998
H    0.47530985  -0.72721970   0.80390966
H    0.57668978  -0.56879979  -0.96051961
H    5.34526777  -1.43992949  -0.01890999
H    2.80983901  -2.04744935   0.06080998

