%chk=mol_4751.chk
# wB97XD/Def2SVP opt freq pop=full gfinput

C 4 H 6 N 2 O 1

1 2
C    0.88742965  -0.54148978  -0.25656989
C    2.28314900  -0.05754998   0.09290996
N    2.33484912   1.38353956   0.21489993
C    1.99493933   2.03303933   1.38650942
O    1.66509938   1.45512938   2.41635895
C    2.04125929   3.49168849   1.34615958
N    2.09439921   4.65014839   1.25466955
H    0.87725967  -1.63033938  -0.36506987
H    0.54493976  -0.09893996  -1.19792950
H    0.16707993  -0.26794991   0.52133977
H    2.98964882  -0.34310988  -0.69268978
H    2.61291909  -0.51103979   1.03362954
H    2.54279923   1.93761933  -0.60889977

