%chk=mol_3898.chk
# wB97XD/Def2SVP opt pop=full gfinput

C 7 H 12

1 2
C    1.789438  -0.172078   0.042783
C    4.661123  -0.086323   0.017858
C    5.639472   2.631330  -0.012680
C    8.526955   2.708866  -0.043558
C    9.458892   5.325929  -0.037171
C   10.227141   7.461811  -0.026607
C   11.162991  10.063396  -0.009241
H    1.131662  -2.132821   0.070166
H    1.005826   0.744495  -1.638034
H    1.033397   0.781912   1.715474
H    5.356939  -1.104375  -1.646537
H    5.384076  -1.075046   1.688640
H    4.927669   3.644942   1.651186
H    4.894353   3.621452  -1.676187
H    9.238153   1.726076  -1.722939
H    9.274662   1.707840   1.608894
H    9.650888  11.392177  -0.481616
H   12.685051  10.306699  -1.387456
H   11.899964  10.566782   1.855938

