%chk=mol_1681.chk
# wB97XD/Def2SVP opt pop=full gfinput

C 5 H 12 N 2

1 2
C    4.047321  -1.403877  -2.445873
N    3.427170   0.681435  -0.754643
C    5.675056   2.118610   0.124420
C    7.179599   0.831102   2.186130
C    7.089818   3.756908  -1.740721
C    5.421057   4.995642   0.180866
N    6.536487   6.552909   2.175037
H    4.992430  -0.739393  -4.160913
H    2.306033  -2.364747  -3.013414
H    5.247618  -2.806867  -1.516997
H    2.175755   1.845695  -1.644723
H    8.904843   1.864045   2.672111
H    7.765527  -1.064785   1.601297
H    6.034217   0.653694   3.900924
H    6.469345   3.803943  -3.692279
H    9.120102   3.938227  -1.542716
H    3.657017   5.777705  -0.532922
H    8.322826   5.989033   2.613831
H    5.510895   6.376616   3.797896

