%chk=mol_3088.chk
# wB97XD/Def2SVP opt pop=full gfinput

C 6 H 10 O 1

1 2
C    1.844656   0.341889  -1.576183
C    4.721575   0.404364  -1.455108
C    5.720938   2.707637   0.000000
O    4.769593   2.560843   2.534331
C    5.057474   4.853951   3.906650
C    8.449702   2.707637   0.000000
C   10.698779   2.707637   0.000000
H    1.215037  -1.284522  -2.688230
H    1.104375   2.054510  -2.466055
H    1.015180   0.175518   0.311143
H    5.476483   0.399942  -3.386710
H    5.364385  -1.346864  -0.544676
H    4.989236   4.425701  -0.901229
H    4.124252   4.629356   5.735791
H    4.167489   6.426826   2.905643
H    7.056407   5.263284   4.250032
H   12.712396   2.696715   0.009902

