%chk=mol_1704.chk
# wB97XD/Def2SVP opt freq pop=full gfinput

C 5 H 12 N 2

1 2
C    1.17787957   1.06623960  -0.87094969
N    2.41880918   1.25323951  -0.13205995
C    3.50214863   1.65435934  -1.02450955
C    4.72843790   1.84794927  -0.18662992
C    5.70912790   0.72111970   0.01484999
C    6.08305788   1.89691937  -0.84222972
N    7.08490705   2.84203911  -0.35835987
H    0.37653989   0.80043966  -0.17526995
H    1.26723957   0.26073989  -1.60669935
H    0.87748969   1.98643923  -1.38200951
H    2.67304897   0.37829986   0.32582986
H    3.26022863   2.60205913  -1.51902938
H    3.66977859   0.89573961  -1.79873931
H    4.54750824   2.52374911   0.64282978
H    5.53077793  -0.22510992  -0.48510981
H    6.17174768   0.61750978   0.98917961
H    6.12644768   1.71650934  -1.91472924
H    7.05005741   2.93238878   0.65695977
H    6.90172720   3.77630877  -0.72348976

