%chk=mol_0666.chk
# wB97XD/Def2SVP opt pop=full gfinput

C 5 H 6 O 1

1 2
C    1.729572  -0.042481   0.071110
C    3.999114  -0.012831   0.040157
C    6.731790   0.023981  -0.014419
C    8.042108   1.920396   1.745049
O    9.728292  -0.029499   2.688419
C    8.092072  -1.953448   1.612995
H   -0.284347  -0.068446   0.096074
H    7.488512   0.099513  -1.943697
H    6.904171   2.715272   3.280281
H    9.076846   3.434369   0.791568
H    9.164719  -3.371744   0.559548
H    6.976377  -2.880113   3.089513

