%chk=mol_2667.chk
# wB97XD/Def2SVP opt freq pop=full gfinput

C 6 H 12 O 1

1 2
C    2.92184901  -1.20623958  -0.50350982
C    2.36843896   0.03630999   0.17612994
C    3.38065886   1.14615965   0.23001991
O    4.54874849   0.84975964   1.00800967
C    3.61653852   2.01392913  -0.97776961
C    2.91857886   2.58384919   0.23018992
C    3.59315848   3.62407875   1.05817962
H    2.16154909  -1.99293935  -0.53531981
H    3.79283857  -1.59686947   0.03311999
H    3.23164892  -0.98777962  -1.53090942
H    2.05796933  -0.21485993   1.19674957
H    1.46801949   0.36133984  -0.35839987
H    4.33377838   0.80145973   1.95560932
H    3.02477884   1.83417928  -1.86771929
H    4.63657856   2.31676912  -1.18543947
H    1.85429931   2.77589893   0.14934994
H    4.68190813   3.51028872   1.06888962
H    3.23358870   3.57343864   2.09050918
H    3.36382890   4.62013865   0.66683972

