%chk=mol_1273.chk
# wB97XD/Def2SVP opt freq pop=full gfinput

C 6 H 11 N 1

1 2
C    0.99382961  -0.13252994   0.05187998
C    2.52527905  -0.00468000  -0.00811000
C    2.98453879  -0.72839975  -1.21843958
C    3.35244870  -1.31962955  -2.19706917
N    2.99433899   1.40175951  -0.02996999
C    2.43783927   2.19607902   1.06833971
C    4.46093798   1.47286940   0.03267999
H    0.59412980   0.22026990   1.00803959
H    0.68424976  -1.17950964  -0.05361998
H    0.51215982   0.43305984  -0.75459975
H    2.93272901  -0.51290983   0.87658966
H    3.67821860  -1.83623934  -3.07032895
H    1.35664940   2.32571912   0.95780969
H    2.85410881   3.21051884   1.06362963
H    2.64360905   1.74795938   2.04706931
H    4.92830801   0.99124962  -0.83227974
H    4.85621786   1.01022959   0.94449961
H    4.79589844   2.51653910   0.00687000

