%chk=mol_2157.chk
# wB97XD/Def2SVP opt freq pop=full gfinput

C 5 H 6 O 2

1 2
C   -1.00617957   0.00046000  -1.29583955
C   -0.55448979   0.97959960  -0.13129994
O   -1.36502945   0.00018000   0.73256969
C   -0.55412978  -0.97955960  -0.13152994
C    0.91928965  -0.77923971   0.21746992
O    1.73174930   0.00041000  -0.65076977
C    0.92045963   0.77895975   0.21751992
H   -2.07160926   0.00047000  -1.54309940
H   -0.39830986   0.00044000  -2.20249915
H   -0.97553968   1.98581922  -0.12325995
H   -0.97572964  -1.98533916  -0.12384996
H    1.26577950  -1.27730954   1.10938954
H    1.26585948   1.27712953   1.10972953

