%chk=mol_6936.chk
# wB97XD/Def2SVP opt pop=full gfinput

C 5 H 6 N 2

1 2
C    1.889726   0.000000   0.000000
C    4.138803   0.000000   0.000000
C    6.867567   0.000000   0.000000
C    7.944768  -2.253139  -1.428652
C    8.522798  -1.019016  -3.899696
N    8.453010   1.421225  -3.904250
N    7.879459   2.099240  -1.496266
H   -0.124457   0.010091  -0.009675
H    7.592957   0.066008   1.936119
H    6.633071  -3.826318  -1.697862
H    9.722206  -2.940017  -0.624687
H    9.020041  -2.157255  -5.563316
H    6.775726   3.678617  -1.410057

