%chk=mol_1923.chk
# wB97XD/Def2SVP opt freq pop=full gfinput

C 5 H 12 N 2

1 2
N    1.03986967   0.01561999  -0.12910995
C    2.48951912   0.01534999   0.01810999
C    2.98111892   1.11406946   0.95326966
C    4.41641855   0.68727976   1.22856951
C    4.36294842  -0.83696967   1.34087944
C    3.04533887  -1.26973951   0.67738974
N    3.23471880  -2.37033916  -0.26727989
H    0.75282967  -0.74279970  -0.74385971
H    0.73569971   0.88387972  -0.56655973
H    2.94318891   0.15777995  -0.97184962
H    2.40741920   1.13110960   1.88834929
H    2.92758894   2.10817933   0.49852979
H    5.05634785   0.97034967   0.38348988
H    4.82667828   1.15601957   2.12768936
H    5.25018787  -1.28668952   0.88216966
H    4.35943842  -1.14193964   2.39431906
H    2.36073923  -1.61377943   1.46403944
H    3.86365843  -2.08018923  -1.01469970
H    2.34360909  -2.57807899  -0.71370977

