%chk=mol_3472.chk
# wB97XD/Def2SVP opt freq pop=full gfinput

C 5 H 10 O 2

1 2
C    2.57858896   0.06670997  -2.38528919
O    3.48867869   0.12877995  -1.28672945
C    4.29358864   1.22901952  -1.29587948
O    4.28038836   2.10055923  -2.15514922
C    5.22490788   1.19936955  -0.09914996
C    6.46242762   0.37781987  -0.43692985
C    5.60063791   2.61713886   0.32256988
H    1.89690936   0.92285967  -2.36668921
H    1.98768926  -0.84795970  -2.28493905
H    3.12353873   0.02446999  -3.33356881
H    4.69089842   0.73460972   0.73883975
H    7.01088715   0.81284970  -1.28003955
H    6.18840742  -0.64506972  -0.71736968
H    7.14126730   0.32280988   0.42035985
H    6.14837790   3.14045882  -0.46922982
H    6.23079777   2.60267901   1.21810949
H    4.70408821   3.20523882   0.54794985

