%chk=mol_2048.chk
# wB97XD/Def2SVP opt pop=full gfinput

C 6 H 11 N 1

1 2
N    3.649893  -1.381276  -2.136846
C    5.083269  -0.667243   0.096508
C    5.540224   2.116796   0.057731
C    7.841192   3.193826   0.047508
C    8.283010   5.995459  -0.002154
C    9.734489   6.842150   2.282770
C   12.012800   7.943048   2.202249
H    3.380739  -3.286328  -2.123070
H    4.717097  -1.008415  -3.696380
H    6.856210  -1.733786   0.158945
H    4.000701  -1.153054   1.791574
H    3.860710   3.302504   0.051363
H    9.521272   2.008250   0.046431
H    6.488847   7.030065  -0.062758
H    9.303368   6.468325  -1.742479
H    8.835263   6.545596   4.108548
H   12.981380   8.291192   0.427569
H   12.958854   8.522816   3.928174

