%chk=mol_1032.chk
# wB97XD/Def2SVP opt freq pop=full gfinput

C 4 H 7 N 1 O 1

1 2
C    1.18157959  -0.03459999   0.26097989
N    2.61639905  -0.05577998   0.29684988
C    3.48519874   1.06911957  -0.07652997
C    4.51723814   0.01984999  -0.53077984
C    3.34412885  -0.96781963  -0.41266984
O    3.06911874  -2.06490922  -0.83502966
H    0.79744965  -1.03601956   0.47471982
H    0.84639966   0.26349989  -0.73700970
H    0.81687969   0.67294973   1.00907958
H    3.78466868   1.68403935   0.77526969
H    3.06710887   1.69191933  -0.87352967
H    4.90137815   0.14952995  -1.54433942
H    5.33184767  -0.18018992   0.16997994

