%chk=mol_3204.chk
# wB97XD/Def2SVP opt freq pop=full gfinput

C 6 H 12 O 1

1 2
C    2.24256921   4.54903793   0.29893988
C    3.67582870   4.05365849   0.24694990
O    3.64999866   2.63927913   0.05770998
C    4.85074806   1.98958921  -0.02000999
C    6.09173775   2.49737906   0.03257999
C    7.38103724   1.72354937  -0.05665998
C    7.26775694   0.20920992  -0.16796993
H    2.20904922   5.62960768   0.46578982
H    1.68930936   4.04943848   1.10146964
H    1.72200930   4.32026863  -0.63715976
H    4.17747831   4.29754877   1.19069946
H    4.19520855   4.53873825  -0.58748978
H    4.65108824   0.92999965  -0.14126994
H    6.23318768   3.56800866   0.14957994
H    7.97867727   1.96159923   0.83132970
H    7.94081688   2.09703922  -0.92216963
H    6.75319767  -0.21628992   0.70017976
H    8.26604748  -0.23839991  -0.21635993
H    6.72653723  -0.08521997  -1.07309961

