%chk=mol_1506.chk
# wB97XD/Def2SVP opt freq pop=full gfinput

C 6 H 11 N 1

1 2
C    1.47965944  -0.67338973   0.74361974
C    2.58650899  -0.02901999  -0.09858996
N    3.46952868  -1.09246957  -0.60243976
C    2.00013924   0.85257971  -1.20177948
C    1.89999926   0.45007983  -2.48495913
C    1.55701935   2.21167922  -0.88525969
C    1.59274936   2.82466912   0.30440989
H    0.82386971   0.07910997   1.19380963
H    1.90584934  -1.26479948   1.56243944
H    0.85190970  -1.34057951   0.14043994
H    3.21735883   0.58896983   0.55052978
H    2.89924884  -1.82504928  -1.02035964
H    3.93956852  -1.52933943   0.18838994
H    2.22819901  -0.53330982  -2.80340886
H    1.49807942   1.08934963  -3.26480865
H    1.16102946   2.79037905  -1.72086930
H    1.96935916   2.35881925   1.20729947
H    1.23706949   3.84701848   0.39884984

