%chk=mol_6536.chk
# wB97XD/Def2SVP opt freq pop=full gfinput

C 4 H 2 N 2 S 1

1 2
C    0.98586965  -0.04349998  -0.00080000
C    2.18585920   0.01125000  -0.00005000
C    3.60925865   0.07282997   0.00083000
N    4.20879841   1.26231956   0.00319000
S    5.85193777   0.94245964   0.00356000
C    5.61623764  -0.75778967   0.00055000
N    4.34551811  -1.09848952  -0.00075000
H   -0.07782997  -0.09092997  -0.00145000
H    6.42938757  -1.47187936  -0.00022000

