%chk=mol_1476.chk
# wB97XD/Def2SVP opt pop=full gfinput

C 7 H 10

1 2
C    1.772752  -0.002419  -0.465402
C    4.638786   0.001474  -0.099230
C    5.447948   2.391770   1.237487
C    6.630104   2.406453   3.485902
C    7.293115   0.043879   4.914138
C    6.630274  -2.342202   3.523376
C    5.449176  -2.366353   1.277606
H    1.158308  -1.686203  -1.502332
H    1.160065   1.654739  -1.544927
H    0.772747   0.020806   1.349699
H    5.545590  -0.014230  -1.963860
H    5.042432   4.174065   0.302054
H    7.154031   4.194171   4.346427
H    9.327952   0.046166   5.298905
H    6.309304   0.058052   6.736212
H    7.155391  -4.116088   4.413210
H    5.043679  -4.164635   0.371067

