%chk=mol_0443.chk
# wB97XD/Def2SVP opt pop=full gfinput

C 4 H 8 N 2

1 2
C    1.422132  -0.896940   0.124741
C    4.232193  -0.367060  -0.172986
N    4.757291   2.260812   0.506825
C    7.444746   2.915791   0.185250
C    9.161242   1.710618   2.030454
N   10.490380   0.754511   3.492195
H    1.008547  -2.856850  -0.392969
H    0.294230   0.335861  -1.096835
H    0.807140  -0.612101   2.080494
H    4.773996  -0.720194  -2.140342
H    5.290081  -1.675715   1.033113
H    4.243418   2.570802   2.340672
H    7.608926   4.970584   0.387394
H    8.051877   2.480606  -1.746731

