%chk=mol_5142.chk
# wB97XD/Def2SVP opt freq pop=full gfinput

C 4 H 10 N 2 O 1

1 2
C    1.03341961  -0.03328999  -0.06320997
N    2.47674918   0.16937993  -0.05765998
C    3.29033875  -1.05149961   0.00358000
C    3.93011856  -1.36736953  -1.35361946
O    4.95231771  -0.43189985  -1.68461943
C    3.00571871   1.42976952   0.00962000
N    4.24007845   1.77933943   0.06274997
H    0.48360983   0.91012967  -0.14624994
H    0.71684968  -0.52368981   0.86331969
H    0.74141973  -0.66247976  -0.91027969
H    2.66527891  -1.90181935   0.30179989
H    4.06184864  -0.94121963   0.77413970
H    3.18797898  -1.37101948  -2.15843916
H    4.39715815  -2.35644913  -1.31604946
H    4.51403809   0.43514985  -1.80083942
H    2.24245906   2.22738910  -0.00876000
H    4.85210800   0.95798963   0.09071997

