%chk=mol_4907.chk
# wB97XD/Def2SVP opt freq pop=full gfinput

C 4 H 10 N 2 O 1

1 2
C    4.34118843  -1.75057924   1.39317942
C    4.86425829  -0.41445982   0.90257967
O    3.76768851   0.51129979   0.87165970
C    4.06655836   1.76503944   0.45788983
N    5.24428797   2.13542914   0.08109997
N    5.31594801   3.43344879  -0.30397987
C    6.64268780   3.89169860  -0.69979978
H    5.14585781  -2.49087906   1.43956935
H    3.55503869  -2.12477922   0.72896975
H    3.89627862  -1.64938939   2.38850927
H    5.28034830  -0.52967978  -0.10424996
H    5.63779783  -0.04864999   1.58631945
H    3.16813874   2.40418911   0.48827982
H    4.65740824   3.64310861  -1.05844963
H    7.35908747   3.75962853   0.11743996
H    6.60872746   4.95636845  -0.94906968
H    7.00059748   3.34251857  -1.57656944

