%chk=mol_4090.chk
# wB97XD/Def2SVP opt pop=full gfinput

C 4 H 8 N 2 O 1

1 2
C    1.777968   0.586911  -0.568978
C    4.455369   0.173609   0.191354
N    5.903429  -1.875156  -0.944598
C    6.590968   0.738014  -1.612239
C    9.082081   1.533815  -0.643527
N   10.367793   3.122319  -1.981321
O   12.654286   3.625874  -0.742303
H    1.194212   2.512958  -0.090329
H    0.537835  -0.727658   0.440174
H    1.484437   0.316076  -2.600169
H    4.751490   0.479764   2.194785
H    4.954711  -2.698548  -2.409552
H    6.134902   1.320295  -3.522317
H    9.759774   0.762939   1.174540
H   13.508670   4.747673  -1.929732

