%chk=mol_3665.chk
# wB97XD/Def2SVP opt freq pop=full gfinput

C 7 H 10

1 2
C    1.00096965  -0.05381998   0.00304000
C    2.51999903   0.00000000   0.00000000
C    3.00201893   1.36116946   0.00000000
C    3.39929867   2.48306894   0.00000000
C    3.86862850   3.80841851   0.00000000
C    3.05651879   4.87225819  -0.00607000
C    3.55827856   6.27987766  -0.00596000
H    0.65734977  -1.09314966   0.00273000
H    0.58512974   0.44204983  -0.88097966
H    0.58875978   0.44030982   0.88972968
H    2.89555907  -0.53278983  -0.88081968
H    2.89914894  -0.53409982   0.87848967
H    4.94648790   3.94687843   0.00564000
H    1.97695935   4.73734856  -0.01197000
H    4.65452814   6.32680750   0.00324000
H    3.19188881   6.81032753   0.87878966
H    3.20501876   6.80655766  -0.89681971

