%chk=mol_6249.chk
# wB97XD/Def2SVP opt freq pop=full gfinput

C 5 H 7 N 1 O 1

1 2
O    2.83589888   2.36407924  -2.23824930
C    2.25030923   2.09822917  -1.19176948
C    2.88800907   1.42346942   0.01084000
N    4.33672857   1.24898958  -0.15106994
C    5.06598806   2.49775910   0.06341998
C    6.50724792   2.24960923  -0.07848997
C    7.68406725   2.04734921  -0.19538993
H    1.17450953   2.31808901  -1.08127964
H    2.42166901   0.43763983   0.10748997
H    2.64880896   1.99579918   0.91301966
H    4.51814842   0.95017970  -1.11331964
H    4.86871815   2.88012886   1.07146955
H    4.75910854   3.26812887  -0.65210980
H    8.72844696   1.86032927  -0.29974988

