%chk=mol_6415.chk
# wB97XD/Def2SVP opt freq pop=full gfinput

C 5 H 5 N 1 S 1

1 2
C    2.40589905  -0.03548999   0.68081975
N    1.63549936   0.26489991  -0.51732981
C    2.26156926   1.44581938  -0.62847978
C    2.50168920   2.56497908  -1.34202945
S    3.72657871   3.47269869  -0.47511983
C    3.89932847   2.24411917   0.76525974
C    3.02212882   1.26084948   0.48035979
H    3.08284879  -0.89366966   0.62430972
H    1.81865931  -0.13573995   1.59918940
H    1.75471926  -0.39897984  -1.27708948
H    2.07255936   2.92724872  -2.26412916
H    4.62380838   2.34601903   1.56011939

