%chk=mol_1378.chk
# wB97XD/Def2SVP opt freq pop=full gfinput

C 6 H 7 N 1

1 2
C    1.11611962  -0.16279994  -0.63230979
C    2.28690934  -0.14975995  -0.35884988
C    3.71640849  -0.13485995  -0.02755999
N    4.25133801   1.20513952  -0.23404992
C    5.66515779   1.26153946   0.11502996
C    6.15950775   2.63355899  -0.05552998
C    6.56425762   3.75610852  -0.19532993
H    0.08111997  -0.16891994  -0.88313967
H    4.24209833  -0.85534966  -0.66461974
H    3.84914851  -0.44767985   1.01493967
H    3.73776865   1.86142933   0.35152987
H    6.24132729   0.58750975  -0.52921981
H    5.82051754   0.94875962   1.15428960
H    6.91802740   4.75229788  -0.32723987

