%chk=mol_4934.chk
# wB97XD/Def2SVP opt freq pop=full gfinput

C 4 H 6 N 2 O 1

1 2
C    0.39182985  -1.00399959  -0.11865996
C    1.79872930  -0.50546980   0.14193995
O    1.83552921   0.90016961  -0.11067996
N    3.13879871   1.36215949   0.13194996
C    3.17128873   2.62902904  -0.09444997
C    4.46076870   3.22891879   0.11944995
N    5.48653793   3.75199866   0.28101990
H    0.31870988  -2.07965922   0.06429998
H    0.09603997  -0.80032974  -1.15311956
H   -0.32630986  -0.48602980   0.52559978
H    2.50700903  -1.01439965  -0.52118981
H    2.07852912  -0.69673973   1.18382955
H    2.32547903   3.25154877  -0.42239985

