%chk=mol_1925.chk
# wB97XD/Def2SVP opt freq pop=full gfinput

C 6 H 7 N 1

1 2
N    0.99916959   0.01599999   0.26447991
C    2.37313914   0.03390999  -0.00795000
C    3.07198882   1.24386942  -0.02491999
C    4.46071815   1.26472962  -0.17363992
C    5.17023849   0.06882998  -0.26189989
C    4.49046850  -1.14430952  -0.18194994
C    3.10108876  -1.15884960  -0.03311999
H    0.51545984   0.85359967  -0.04380998
H    0.53592980  -0.83074969  -0.04966998
H    2.53813910   2.18481898   0.07662997
H    4.98868799   2.21323919  -0.20427993
H    6.25094795   0.08230997  -0.37054986
H    5.04116821  -2.08048916  -0.21924992
H    2.59048891  -2.11311936   0.06170997

