%chk=mol_3290.chk
# wB97XD/Def2SVP opt pop=full gfinput

C 5 H 8 O 2

1 2
C    1.933965  -0.311257   1.537802
C    3.634624   0.938854  -0.427135
O    2.109558   2.045402  -2.382113
C    1.401213   0.458013  -4.259329
O    1.893543  -1.788456  -4.438362
C    5.099766   3.076399   0.746404
C    7.626651   3.188119   0.869085
H    3.032708  -1.055072   3.125626
H    0.871372  -1.876460   0.698613
H    0.530257   1.023740   2.272509
H    4.943882  -0.456312  -1.227264
H    0.270684   1.520266  -5.646615
H    3.998906   4.629054   1.524140
H    8.813494   1.697220   0.107714
H    8.564617   4.795615   1.733521

