%chk=mol_6102.chk
# wB97XD/Def2SVP opt pop=full gfinput

C 5 H 11 N 1 O 1

1 2
O    3.810463  -0.500929  -2.642706
C    4.354363   0.158472  -0.094260
C    5.826687   2.625510  -0.040138
C    4.333690   4.877780  -1.040067
C    5.598597   7.078517   0.281059
N    6.003433   6.121068   2.839748
C    6.621487   3.429154   2.617233
H    2.820038  -2.048709  -2.598714
H    5.468546  -1.369862   0.745062
H    2.569706   0.320139   0.940706
H    7.522678   2.425766  -1.222010
H    2.336665   4.756989  -0.495845
H    4.436793   5.036233  -3.099510
H    7.410636   7.533922  -0.614142
H    4.415459   8.772619   0.282268
H    7.419216   7.086681   3.716581
H    8.653888   3.126004   2.874689
H    5.631384   2.375556   4.096775

