%chk=mol_3095.chk
# wB97XD/Def2SVP opt freq pop=full gfinput

C 5 H 6 O 2

1 2
C    3.34843898  -1.56414938  -1.12023950
C    2.74953890  -0.83162969  -0.17334993
C    3.25452876   0.46738982   0.35214987
O    2.61895895   1.01625967   1.25125945
C    4.52623844   1.05034959  -0.20801993
C    4.86581850   2.38688922   0.38026986
O    5.40053797   3.28099871  -0.27207991
H    2.90483904  -2.50441909  -1.43791938
H    4.27305841  -1.27479947  -1.60672939
H    1.82325923  -1.17063951   0.28263989
H    4.42245817   1.17087948  -1.29165947
H    5.35364771   0.37250987   0.02218999
H    4.73077822   2.49312901   1.47039950

