%chk=mol_4633.chk
# wB97XD/Def2SVP opt pop=full gfinput

C 4 H 10 N 2 O 1

1 2
C    2.251609  -1.102239   0.941046
C    4.654358  -0.441780  -0.514516
C    5.075786  -2.269467  -2.742918
O    3.024412  -2.125507  -4.497095
N    4.459054   2.117514  -1.507624
C    4.752226   4.288771  -0.172929
N    5.694368   4.587310   2.041358
H    2.015506   0.140237   2.580818
H    2.323891  -3.052399   1.631098
H    0.559453  -0.896845  -0.235044
H    6.289330  -0.598420   0.745327
H    5.227455  -4.221062  -2.069534
H    6.812179  -1.778365  -3.758495
H    3.390339  -3.325994  -5.842693
H    3.331871   2.211868  -3.067649
H    4.089159   5.964316  -1.224845
H    6.245413   2.884988   2.755107

