%chk=mol_5827.chk
# wB97XD/Def2SVP opt freq pop=full gfinput

C 7 H 16

1 2
C    2.00160933  -1.25232947   0.34956986
C    3.42103863  -0.85925967  -0.07163998
C    3.66626859  -1.28956962  -1.51829946
C    3.62258863   0.65561974   0.13543996
C    5.02055788   1.20393956  -0.21410993
C    5.04900837   2.71958899   0.00521000
C    6.12914753   0.54441977   0.60660976
H    1.81922925  -0.98789960   1.39645946
H    1.85063934  -2.33225918   0.24816991
H    1.24948955  -0.74597973  -0.26487991
H    4.11548853  -1.40847945   0.57495981
H    3.03625894  -0.72380972  -2.21270919
H    3.44245887  -2.35365915  -1.64995944
H    4.71119833  -1.14177954  -1.80645931
H    3.40166855   0.89653969   1.18424952
H    2.87638879   1.19495964  -0.46370983
H    5.22412825   1.02611959  -1.27639949
H    4.86547804   2.97387886   1.05487967
H    4.28482866   3.21534872  -0.60298979
H    6.02150774   3.13588881  -0.27897990
H    5.94008780   0.64310974   1.68088925
H    7.09904718   1.00597966   0.39103985
H    6.21947765  -0.52041978   0.37181985

