%chk=mol_4044.chk
# wB97XD/Def2SVP opt freq pop=full gfinput

C 5 H 7 N 1 O 1

1 2
C    0.91277963   0.02112999   0.04744998
C    2.42629910  -0.02022999   0.00632000
C    3.16684890   0.96672964   0.91701967
O    4.01905823  -0.09250996   1.42159951
C    3.11479878  -1.09790957   0.86940968
C    3.83119845  -2.12988925   0.14573994
N    4.37341833  -2.96708894  -0.44988984
H    0.49050984  -0.83368969  -0.49052984
H    0.53999984   0.93426967  -0.42755982
H    0.53315979  -0.00475000   1.07417965
H    2.79334903   0.02032999  -1.02806962
H    2.58280897   1.41823947   1.72512937
H    3.74047852   1.73917937   0.39789984
H    2.48705912  -1.50408947   1.67269933

