%chk=mol_3563.chk
# wB97XD/Def2SVP opt pop=full gfinput

C 5 H 8 O 2

1 2
O    1.879975   0.090839   0.039344
C    4.537856   0.067520  -0.042254
C    5.648391   2.135712   1.625278
C    8.298127   1.193551   2.241158
C    7.972377  -1.624522   2.755221
C    5.743879  -2.277536   1.105301
O    4.947171  -4.424794   0.772010
H    1.333693  -1.566507  -0.562118
H    5.188413   0.253034  -1.997989
H    4.531903   2.366655   3.357590
H    5.672901   3.967310   0.664428
H    9.544439   1.476575   0.609021
H    9.128379   2.184864   3.854078
H    9.646315  -2.703990   2.216630
H    7.470447  -1.972836   4.729436

