%chk=mol_2891.chk
# wB97XD/Def2SVP opt pop=full gfinput

C 5 H 6 O 2

1 2
C    1.889726   0.000000   0.000000
C    4.618491   0.000000   0.000000
C    6.867567   0.000000   0.000000
C    9.596332   0.000000   0.000000
C   10.798009   2.522293  -0.626690
O    9.488315   4.005728  -2.247584
O   12.891239   3.139534   0.141748
H    1.145382   1.929278   0.020182
H    1.144947  -0.982053   1.660540
H    1.145117  -0.946866  -1.680930
H   10.319152  -1.377327  -1.365705
H   10.277181  -0.555957   1.875572
H    7.860089   3.303789  -2.760399

