%chk=mol_5287.chk
# wB97XD/Def2SVP opt freq pop=full gfinput

C 4 H 10 N 2 O 1

1 2
C    2.24777913  -0.73436970  -1.13589954
O    1.88881934   0.52653980  -0.58699977
C    3.03454876   1.27356946  -0.11341996
C    3.52441883   2.39522910  -0.99822962
N    2.90568876   2.61917901  -2.31560922
C    2.75002909   2.70875883   0.25935990
N    3.42152858   3.32461882   1.41206944
H    1.34222949  -1.22036946  -1.50825942
H    2.69627881  -1.36763942  -0.36476985
H    2.94582891  -0.60384977  -1.96814930
H    3.77204847   0.74640977   0.48413983
H    4.59162807   2.60440922  -0.97700959
H    1.92079926   2.35007906  -2.26876926
H    3.31791854   1.99435925  -3.00649905
H    1.72681940   3.05151892   0.12391996
H    4.37173843   2.97853899   1.52823937
H    2.92373896   3.09686899   2.27183914

