%chk=mol_1334.chk
# wB97XD/Def2SVP opt freq pop=full gfinput

C 5 H 10 N 2

1 2
C    0.74654973   1.08732963   0.75706971
C    2.22816896   0.89541972   0.75392973
C    3.04342890   1.40996945  -0.17956993
C    4.53119802   1.22391951  -0.22198991
N    5.17942810   2.54033923  -0.19932993
N    6.49754763   2.55395889  -0.51684982
C    6.89476776   3.72088861  -0.89874965
H    0.24478991   0.11766995   0.72286969
H    0.40655985   1.67778945  -0.09896997
H    0.43992984   1.60515940   1.67129934
H    2.64106917   0.29596990   1.56547940
H    2.62339902   2.00008917  -0.99239963
H    4.78301811   0.70195973  -1.15093958
H    4.88931847   0.61284971   0.61308980
H    5.03637791   2.92383885   0.73911971
H    7.94490719   3.87035847  -1.19440949
H    6.23155785   4.60411835  -0.96084964

