%chk=mol_2151.chk
# wB97XD/Def2SVP opt pop=full gfinput

C 6 H 8 O 1

1 2
C   -1.973649   0.000416  -2.251647
C   -1.017466   1.920434  -0.120451
C   -2.552831   0.000283   1.641851
C   -1.016144  -1.920472  -0.120583
C    1.815498  -1.477785   0.372238
O    3.206393   0.001002  -1.385094
C    1.818105   1.477218   0.371879
H   -4.000021   0.000265  -2.678158
H   -0.917953   0.000246  -4.027914
H   -1.672937   3.870367  -0.217810
H   -2.037087  -0.000057   3.643430
H   -4.615675   0.000094   1.468695
H   -1.672899  -3.870102  -0.218112
H    2.620181  -2.441375   1.978430
H    2.619860   2.441602   1.978524

