%chk=mol_0748.chk
# wB97XD/Def2SVP opt freq pop=full gfinput

C 6 H 6

1 2
C    0.99999964   0.00000000   0.00000000
C    2.19015908   0.00000000   0.00000000
C    3.63415861   0.00000000   0.00000000
C    4.19642830   1.42160952  -0.00633000
C    5.66819811   1.41519952  -0.00688000
C    6.86898756   1.41404951  -0.00741000
H   -0.06590997  -0.00220000   0.00001000
H    4.00586843  -0.54789978  -0.87500966
H    4.00590849  -0.54003984   0.87985969
H    3.83479857   1.97245920   0.87104964
H    3.83419847   1.96483934  -0.88827968
H    7.93592739   1.41532946  -0.00792000

