%chk=mol_0458.chk
# wB97XD/Def2SVP opt pop=full gfinput

C 4 H 6 N 2

1 2
C    2.130269  -0.057863  -0.173118
N    4.878158  -0.079671   0.063759
C    6.146467  -1.305234  -2.048180
C    6.163191   1.546816  -1.783599
C    8.502823   2.767069  -1.130207
N   10.399730   3.767963  -0.672327
H    1.340780   1.366234   1.103071
H    1.366045  -1.896472   0.390890
H    1.439688   0.354569  -2.083801
H    5.008247  -2.141834  -3.527136
H    7.839094  -2.357320  -1.569890
H    4.984266   2.610071  -3.078893

