%chk=mol_5324.chk
# wB97XD/Def2SVP opt pop=full gfinput

C 5 H 11 N 1 O 1

1 2
C    7.487397  -1.954638   1.447908
O    5.519871  -0.630261   0.183776
C    5.922024   1.870772  -0.337505
C    7.976572   3.287254   0.111947
C    8.316496   6.042494  -0.511946
C    5.981229   7.421881  -1.510666
N    9.242064   7.321139   1.758504
H    6.867057  -3.907708   1.721862
H    7.850622  -1.133004   3.312595
H    9.214437  -1.990090   0.306079
H    4.232042   2.606065  -1.238205
H    9.626775   2.431832   0.986815
H    9.802350   6.166006  -1.950915
H    4.419181   7.377850  -0.150460
H    5.317822   6.576738  -3.281169
H    6.413107   9.409248  -1.907773
H    7.827264   7.373466   3.066912
H    9.629081   9.158350   1.335772

