%chk=mol_2571.chk
# wB97XD/Def2SVP opt freq pop=full gfinput

C 5 H 10 O 2

1 2
C    0.94295967  -0.00263000   0.16671993
C    2.44653916   0.00754000  -0.07217997
O    2.67880893   0.05729998  -1.49757946
C    3.20799875   1.06991959   0.75788969
C    4.16337872  -0.02505999   1.26285958
O    5.50354767  -0.01002000   0.73251975
C    3.21517873  -1.09571958   0.69331974
H    0.70173973  -0.03309999   1.23389947
H    0.48098981  -0.87558967  -0.30559987
H    0.47722983   0.89528966  -0.25594988
H    3.60459876  -0.20147993  -1.63540936
H    2.62350917   1.54282939   1.55576944
H    3.68111873   1.86177933   0.16887994
H    4.21897840  -0.06223998   2.35687923
H    5.42974806   0.27550989  -0.19306992
H    3.69773841  -1.84816933   0.06171998
H    2.63460922  -1.61857939   1.46155941

