%chk=mol_4792.chk
# wB97XD/Def2SVP opt freq pop=full gfinput

C 4 H 7 N 1 O 2

1 2
C    0.94302970   0.01735999  -0.20393993
C    2.43891907  -0.04587998  -0.06924997
N    3.13635874  -1.13363957   0.04956998
O    2.31179929  -2.26445913   0.06281998
C    3.18175888   1.23269951  -0.10558996
C    2.82312894   2.38029909   0.80735970
O    3.93222833   1.52514946   1.08943963
H    0.60912973   1.03657961  -0.41664985
H    0.48158982  -0.32077986   0.72820973
H    0.61713976  -0.63050979  -1.02250957
H    2.95459890  -2.98636889   0.19584993
H    3.66016865   1.46316946  -1.04968965
H    1.95829928   2.29809904   1.45339942
H    3.04167867   3.38712883   0.47400981

