%chk=mol_2786.chk
# wB97XD/Def2SVP opt freq pop=full gfinput

C 6 H 12 O 1

1 2
C    0.60672975   0.44645983  -0.15186994
C    1.93706930  -0.26072991  -0.12249995
C    1.84481931  -1.75761938  -0.23854990
C    3.08438873   0.43772984  -0.00763000
C    4.49538851  -0.09736997  -0.00186000
C    5.22026777   0.21138991   1.30897951
O    4.67192841  -0.53677982   2.38904905
H    0.71190977   1.53465939  -0.08625997
H   -0.01348000   0.12206995   0.69082975
H    0.07693997   0.21844992  -1.08282959
H    1.01324964  -2.13725924   0.36619988
H    2.74224901  -2.27145934   0.11373996
H    1.66722941  -2.04259920  -1.28080952
H    3.02202892   1.52409935   0.06342997
H    5.03689766   0.37735987  -0.82849967
H    4.52030802  -1.17486966  -0.18469992
H    5.16989803   1.27665949   1.55932939
H    6.27602768  -0.06465998   1.22166955
H    3.71375847  -0.36206988   2.39852905

