%chk=mol_3739.chk
# wB97XD/Def2SVP opt pop=full gfinput

C 6 H 10 O 1

1 2
O    1.712659   0.095204  -0.007313
C    4.394860  -0.013493   0.027571
C    5.429788   2.669559  -0.017121
C    8.314455   2.697490   0.013814
C    9.340954   5.396793  -0.014551
C   12.119664   5.405202   0.003590
C   14.388601   5.416106   0.017234
H    1.102504  -1.638128   0.024151
H    5.032624  -1.079506  -1.626544
H    4.991485  -1.006808   1.741156
H    4.683384   3.719850   1.607382
H    4.720441   3.651008  -1.700357
H    9.036765   1.654720  -1.627357
H    9.001767   1.704023   1.699960
H    8.636256   6.434650   1.634122
H    8.658272   6.392207  -1.697862
H   16.402237   5.427218   0.028875

