%chk=mol_0202.chk
# wB97XD/Def2SVP opt freq pop=full gfinput

C 4 H 6 O 1

1 2
C    2.15617919  -0.91115969  -1.16471958
C    2.15547919   0.12498996  -0.31597987
C    3.25202894   1.07475960  -0.11302996
C    3.42572880   2.20226932  -1.09942961
O    3.00863910   2.44408917   0.24823990
H    1.29262948  -1.56398940  -1.24457955
H    3.01326871  -1.12708962  -1.79413939
H    1.26770949   0.29270989   0.29194990
H    4.15137815   0.62903976   0.29995990
H    2.68884897   2.34254909  -1.88053930
H    4.43253803   2.49230909  -1.37179959

