%chk=mol_5236.chk
# wB97XD/Def2SVP opt freq pop=full gfinput

C 4 H 8 N 2 O 1

1 2
C    1.48664951  -0.47809982  -0.95464963
N    2.82691884  -0.31891987  -0.39723983
N    3.24808884   0.95905966  -0.25975990
C    4.52328825   1.12885952  -0.05922998
C    5.59426785   0.07213997   0.00851000
C    4.98634815   2.56329894   0.06655997
O    6.15888786   2.83661890   0.26902992
H    1.24890959  -1.54206944  -1.04909956
H    1.42770946  -0.03019999  -1.95219934
H    0.73475975  -0.01096000  -0.31075990
H    2.85342908  -0.81110972   0.50048983
H    5.18452835  -0.93063962   0.13776995
H    6.25826740   0.27410990   0.85325968
H    6.17572784   0.09904996  -0.91694969
H    4.18790817   3.31429863  -0.03818998

