%chk=mol_0974.chk
# wB97XD/Def2SVP opt pop=full gfinput

C 4 H 9 N 1 O 1

1 2
C    1.855106  -0.058714  -0.216015
C    4.735313  -0.011584  -0.100042
C    5.896153  -1.709673  -2.119951
C    5.735734   2.674246  -0.305436
N    5.221257   3.933881  -2.490036
O    6.949279   3.696361   1.384451
H    1.042600   1.222332   1.192474
H    1.140261  -1.963539   0.162535
H    1.149199   0.525930  -2.071801
H    5.319314  -0.724842   1.758031
H    5.291460  -1.166604  -4.023454
H    5.347094  -3.682169  -1.819296
H    7.962871  -1.604793  -2.068135
H    4.232193   3.181203  -3.937037
H    5.875536   5.723092  -2.652609

