%chk=mol_4284.chk
# wB97XD/Def2SVP opt freq pop=full gfinput

C 4 H 2 N 2 O 1

1 2
C    0.99650967  -0.02709999   0.00193000
C    2.19560933   0.02879999  -0.00082000
C    3.60919881   0.09833997  -0.00408000
N    4.36649847   1.16848958  -0.00815000
C    5.61525774   0.61361980  -0.00970000
N    5.65818787  -0.72288972  -0.00681000
O    4.30016851  -1.07502961  -0.00300000
H   -0.06804997  -0.07283998   0.00435000
H    6.52495718   1.19822955  -0.01294000

