%chk=mol_2266.chk
# wB97XD/Def2SVP opt pop=full gfinput

C 6 H 12 O 1

1 2
C    2.094573   0.017234  -0.205640
C    4.911360   0.120262  -0.223989
C    6.379999  -1.058568  -2.356961
C    6.399406   1.792915  -2.037540
C    5.006206   3.370988  -3.963701
C    8.769387   3.025451  -1.026556
O   10.602516   3.184548  -2.980533
H    1.326474   1.726737   0.667451
H    1.459813  -1.608365   0.904499
H    1.287338  -0.169017  -2.099183
H    5.650073  -0.109717   1.676678
H    5.346054  -1.859415  -3.936394
H    8.063253  -2.122616  -1.869903
H    3.464624   2.333887  -4.869976
H    6.287629   3.987058  -5.465277
H    4.208458   5.052958  -3.062717
H    9.594518   1.957322   0.541577
H    8.364249   4.938176  -0.348976
H   10.778639   1.492978  -3.674667

