%chk=mol_4653.chk
# wB97XD/Def2SVP opt freq pop=full gfinput

C 4 H 5 N 1 O 2

1 2
C    1.00590956  -1.82457936   1.42611957
C    1.95661926  -1.87293923   0.48460981
C    3.15513873  -1.00138962   0.56583977
O    3.36367869  -0.19978993   1.46354949
O    3.93098855  -1.28073955  -0.52811980
N    5.09365845  -0.48544982  -0.51916981
C    5.80535746  -0.77325970  -1.55350947
H    0.12945995  -2.46104908   1.36798942
H    1.08169961  -1.14875948   2.27528906
H    1.87978935  -2.54621911  -0.36016986
H    6.76080751  -0.25196990  -1.72378945
H    5.50864792  -1.53052938  -2.29938912

