%chk=mol_4781.chk
# wB97XD/Def2SVP opt freq pop=full gfinput

C 4 H 10 N 2 O 1

1 2
C    3.70989871  -0.56359977   1.89021933
C    2.71760893  -0.34715986   0.75869972
N    2.65274906   1.04846966   0.33499986
N    2.00488925   1.97362924   1.19939947
C    0.59858972   2.12442923   0.83460969
C    3.50822854   1.55692947  -0.63517976
O    3.65974855   2.74661899  -0.89246970
H    3.74891853  -1.62259936   2.16199923
H    3.42287850   0.00503000   2.78057909
H    4.71592855  -0.24479991   1.59915936
H    1.71494937  -0.66784978   1.06212962
H    3.01451874  -0.95671964  -0.10199996
H    2.46474910   2.88248897   1.05030966
H    0.05290998   1.18575966   0.97546965
H    0.48358980   2.45054913  -0.20465992
H    0.13448994   2.87610888   1.48040950
H    4.04612827   0.76581973  -1.18401957

