%chk=mol_5169.chk
# wB97XD/Def2SVP opt freq pop=full gfinput

C 4 H 9 N 1 O 2

1 2
C    2.41334915  -0.74287969  -1.17449963
N    2.59615922  -0.21892992   0.17460994
C    2.95577884   1.21549952   0.16151994
C    4.42271852   1.44854951  -0.19744992
O    5.26205826   0.57099980  -0.35907987
O    4.66788816   2.78902912  -0.27384987
C    6.02714777   3.11541867  -0.56100982
H    2.12198901  -1.79578936  -1.11413956
H    3.33004880  -0.68415976  -1.76858926
H    1.61249936  -0.21184991  -1.69880939
H    3.36504889  -0.73123974   0.61619973
H    2.80331898   1.60754931   1.17264962
H    2.31194901   1.77103937  -0.52833980
H    6.12990761   4.20456839  -0.52247977
H    6.29392719   2.77710891  -1.56761944
H    6.69843769   2.68062901   0.18577993

