%chk=mol_2382.chk
# wB97XD/Def2SVP opt freq pop=full gfinput

C 6 H 10 O 1

1 2
C    0.95803964   0.05523998  -0.00139000
C    2.47980928   0.02256999   0.00360000
C    3.07429886   1.12766957   0.85473967
C    4.44051838   0.56861979   1.18770945
O    4.25729799  -0.84044969   1.38406956
C    3.12509871  -1.17210960   0.64858973
C    2.69658899  -2.43675923   0.61672980
H    0.55066979  -0.72592974  -0.65173972
H    0.59574974   1.01957965  -0.37322986
H    0.54630977  -0.09520996   1.00280964
H    2.85234904   0.11241996  -1.02477968
H    2.49520898   1.26793945   1.77672935
H    3.12929869   2.09064913   0.33857989
H    5.15094805   0.71667969   0.36579987
H    4.85706806   1.01321959   2.09635925
H    1.80912936  -2.72980881   0.06836998
H    3.24136877  -3.21292901   1.14490962

