%chk=mol_5466.chk
# wB97XD/Def2SVP opt freq pop=full gfinput

C 4 H 8 N 2 O 1

1 2
C    1.32157958  -0.17871994  -0.54011977
O    2.73605895  -0.20380993  -0.39158985
N    3.18612885   1.11391962  -0.21611992
C    4.47064829   1.09684956  -0.07492997
N    5.23634815   2.20891929   0.11319996
C    6.59129715   2.29980922   0.27146989
C    7.29871702   3.41791868   0.44906986
H    0.97242963  -1.20245957  -0.69747972
H    1.04110968   0.42667982  -1.40748954
H    0.85326970   0.21868992   0.36543986
H    5.05046844   0.15619995  -0.09822997
H    4.71882820   3.08085871   0.13452995
H    7.10203743   1.33926952   0.24280991
H    6.82818747   4.39529800   0.48314983
H    8.37692738   3.37641859   0.56490976

