%chk=mol_2283.chk
# wB97XD/Def2SVP opt freq pop=full gfinput

C 6 H 8 O 1

1 2
C    0.96325964   0.01258000   0.44590983
C    2.25645924   0.00461000   0.09690996
C    3.08147907  -1.23480952  -0.19047993
C    4.24297857  -0.76451969  -1.02051961
O    5.24586821  -0.00836000  -0.33138987
C    4.24591875   0.72825974  -1.04624963
C    3.08639884   1.23025954  -0.23125991
H    0.42138982   0.94413960   0.57768977
H    0.41779986  -0.91136968   0.60859978
H    2.49608922  -1.98020935  -0.73730975
H    3.44461870  -1.67750931   0.74429971
H    4.50080872  -1.34670949  -1.88939929
H    4.50527811   1.27933955  -1.93331921
H    3.45097876   1.70229936   0.68741977
H    2.50363922   1.95935929  -0.80310971

