%chk=mol_4364.chk
# wB97XD/Def2SVP opt pop=full gfinput

C 5 H 13 N 1 O 1

1 2
C    1.772544  -0.455008   0.299068
C    4.618169  -0.059205  -0.092200
C    5.634785  -2.195956  -1.764721
C    5.217685   2.577870  -1.216284
N    4.285596   4.663617   0.402625
C    8.072570   3.017042  -1.639848
O    8.484511   5.590301  -2.345471
H    1.010323   0.859561   1.700451
H    1.385150  -2.366258   0.990897
H    0.732458  -0.193565  -1.470301
H    5.538183  -0.224310   1.761848
H    4.892047  -2.055209  -3.691542
H    5.096138  -4.045034  -1.006279
H    7.700199  -2.163377  -1.860851
H    4.264904   2.789085  -3.046352
H    4.865780   4.364172   2.219181
H    2.359682   4.616412   0.455840
H    8.810092   1.827497  -3.158545
H    9.154268   2.649377   0.084735
H    7.149193   6.515927  -1.451347

