%chk=mol_3836.chk
# wB97XD/Def2SVP opt freq pop=full gfinput

C 5 H 9 N 1 O 1

1 2
C   -1.67701948   0.76789975   0.43813983
C   -1.01247966  -0.38360986  -0.27017993
C   -0.24059992  -1.41300952   0.50258982
O    1.15021968  -1.39428949   0.17063993
C    1.70268929  -0.08127997  -0.00419000
C    0.77422971   1.07999969   0.38493985
N   -0.48490980   0.99287963  -0.37239987
H   -2.60384893   1.14900959   0.02355999
H   -1.59982944   0.85719973   1.51485932
H   -1.44709945  -0.77275968  -1.18177962
H   -0.33536988  -1.26286948   1.58437943
H   -0.62399977  -2.41449904   0.28350988
H    2.62206912  -0.03331999   0.58931977
H    1.99820924   0.00796000  -1.05629957
H    0.61061978   1.07733953   1.47018945
H    1.26247954   2.03031921   0.14329995

