%chk=mol_6870.chk
# wB97XD/Def2SVP opt freq pop=full gfinput

C 5 H 8 N 2

1 2
C    0.98150963   0.03803999  -0.00929000
N    2.42317891   0.02148999  -0.00233000
C    3.22598886   1.12829959   0.00738000
C    4.50866795   0.63869977   0.01104000
N    4.50340843  -0.73036975   0.00374000
C    3.23410892  -1.08925951  -0.00431000
C    2.74788904  -2.49274898  -0.01481999
H    0.62653977   1.07215953  -0.00389000
H    0.62313974  -0.47766984   0.88546968
H    0.63205981  -0.46549982  -0.91441965
H    2.83769894   2.13674927   0.01075000
H    5.43549776   1.19784951   0.01846999
H    1.65756941  -2.56628895  -0.00785000
H    3.12707877  -3.02409887   0.86374968
H    3.11504889  -3.00659895  -0.90881968

