%chk=mol_5915.chk
# wB97XD/Def2SVP opt pop=full gfinput

C 6 H 13 N 1

1 2
C    1.835907   0.122851   0.218131
C    4.711976   0.042179  -0.078443
C    5.658823  -2.528189  -1.032716
C    5.103092  -2.943891  -3.833650
C    6.037392  -0.707362  -5.390387
C    5.033323   1.788739  -4.351907
N    5.638603   2.126943  -1.668685
H    1.224694   1.961857   0.951250
H    1.212410  -1.320276   1.566300
H    0.835127  -0.215183  -1.559931
H    5.502410   0.334349   1.815044
H    4.823696  -4.063931   0.079425
H    7.710971  -2.638568  -0.742795
H    6.017493  -4.685878  -4.482090
H    3.066553  -3.193769  -4.120699
H    8.110232  -0.679489  -5.378690
H    5.448761  -0.933355  -7.361674
H    5.873156   3.354925  -5.415162
H    2.988772   1.927124  -4.651051
H    7.558187   2.215288  -1.491977

