%chk=mol_1293.chk
# wB97XD/Def2SVP opt freq pop=full gfinput

C 6 H 11 N 1

1 2
C    1.16379964  -0.30750990  -0.02823999
C    2.66080904  -0.25524989  -0.29287988
C    3.27934885   1.03907967   0.24849992
C    4.78965807   1.13452959  -0.02472999
N    5.28155804   2.46060896   0.34808987
C    5.54451752   0.13053995   0.74109972
C    6.16226768  -0.68834972   1.36777949
H    0.73915970  -1.23045957  -0.43539983
H    0.65137976   0.53829980  -0.49749982
H    0.95551962  -0.28310990   1.04620957
H    2.83720899  -0.32595989  -1.37248957
H    3.13040876  -1.12931955   0.17144993
H    3.08114886   1.11276960   1.32654953
H    2.76988888   1.88863933  -0.22559991
H    4.97682858   0.99201959  -1.09497964
H    5.13470793   2.59841895   1.34698939
H    4.72687817   3.17186880  -0.12231995
H    6.71617746  -1.41016948   1.92319918

