%chk=mol_5158.chk
# wB97XD/Def2SVP opt freq pop=full gfinput

C 4 H 11 N 1 O 2

1 2
C    1.45717943  -0.38318986   0.00892000
N    2.89967871  -0.36124986   0.23934990
C    3.48681855   0.88701963  -0.28301987
C    4.99026823   0.96691966   0.03930999
O    5.19836807   0.66897976   1.43302953
C    5.83839798  -0.00739000  -0.78174967
O    7.21645689   0.16593994  -0.44821984
H    1.03929961  -1.30905950   0.41520983
H    1.22401953  -0.34735987  -1.06028962
H    0.96174961   0.45219982   0.51306981
H    3.31011891  -1.16407955  -0.24126992
H    2.99403882   1.73115933   0.21403991
H    3.32359886   0.98107964  -1.36236954
H    5.35276794   1.98853922  -0.11911996
H    4.43721867   0.10227996   1.68257940
H    5.72043800   0.16743994  -1.85495925
H    5.58600807  -1.04850960  -0.55958980
H    7.23270702   0.26111990   0.52558982

