%chk=mol_5802.chk
# wB97XD/Def2SVP opt freq pop=full gfinput

C 4 H 8 N 2 O 1

1 2
N    3.15476871  -1.19518960   0.12731995
C    2.26360917  -0.04535998  -0.15152994
C    3.02507877   1.28569961  -0.10639996
O    2.44367909   2.36639905  -0.05829998
N    4.39764833   1.12595963  -0.15312994
C    5.29962826   2.14947939  -0.11703996
C    6.61568785   1.93183935  -0.14257996
H    2.61244917  -2.05100918  -0.00594000
H    3.38526869  -1.17991948   1.12386954
H    1.46478939  -0.01831999   0.59669977
H    1.82705927  -0.15440993  -1.14806950
H    4.71235847   0.15929994  -0.21675992
H    4.89234829   3.16004896  -0.06093998
H    7.03836727   0.93421966  -0.19282992
H    7.30887747   2.76762915  -0.10986996

