%chk=mol_1792.chk
# wB97XD/Def2SVP opt pop=full gfinput

C 5 H 10 N 2

1 2
C    2.346473   0.128615   0.913286
N    4.697141  -0.198005  -0.526534
C    4.874548  -2.820738  -1.485740
C    2.906909  -3.511395  -3.419497
C    1.352080  -5.502712  -3.245265
N    5.171840   1.684804  -2.220920
C    7.514231   2.371191  -2.225152
H    2.382416   1.945681   1.905883
H    2.139113  -1.337945   2.359588
H    0.675067   0.112420  -0.308177
H    4.833523  -4.137537   0.115859
H    6.739406  -3.075019  -2.356961
H    2.776159  -2.270752  -5.053695
H    1.414082  -6.784457  -1.645025
H   -0.030954  -5.879883  -4.713223
H    8.140279   3.880042  -3.513757
H    8.967242   1.531963  -0.983867

