%chk=mol_2100.chk
# wB97XD/Def2SVP opt pop=full gfinput

C 5 H 10 N 2

1 2
N    5.494001  -1.523705  -2.262664
C    4.402381  -0.191958  -0.088307
C    5.324984   2.564736   0.102858
N    8.091826   2.722736  -0.072792
C    8.933908   5.342974   0.111456
C   11.701411   5.441183  -0.068257
C   13.965775   5.527128  -0.206547
H    4.809032  -3.324293  -2.288534
H    7.387903  -1.704986  -1.937139
H    4.910661  -1.216417   1.639167
H    2.338593  -0.212254  -0.240109
H    4.671460   3.355001   1.902803
H    4.462834   3.665483  -1.428633
H    8.599596   2.049786  -1.808373
H    8.341591   6.161188   1.919603
H    8.104431   6.483197  -1.406183
H   15.974951   5.592588  -0.318249

