%chk=mol_6321.chk
# wB97XD/Def2SVP opt freq pop=full gfinput

C 4 H 8 N 2 O 1

1 2
O    1.27906954  -0.01855999  -0.28758988
N    2.52285910  -0.06886998   0.35682988
C    3.28405881   1.16987956   0.15698995
C    4.33979845   0.77818972  -0.87489969
C    4.62404823  -0.69196969  -0.58412975
C    3.28085876  -1.14401960  -0.07450998
N    2.95748901  -2.38994908  -0.06032998
H    0.78699970  -0.76227969   0.10615996
H    3.75994849   1.45064938   1.10324955
H    2.66252899   2.00458908  -0.18213993
H    3.92293859   0.87996972  -1.88473928
H    5.23658848   1.40150952  -0.81546974
H    4.92908812  -1.24401951  -1.47647941
H    5.36914778  -0.81511968   0.20772994
H    2.03030920  -2.48625898   0.35590988

