%chk=mol_0247.chk
# wB97XD/Def2SVP opt freq pop=full gfinput

C 5 H 9 N 1

1 2
C    0.93143964  -0.00864000   0.96175969
C    0.29083988  -1.02156961  -0.02882999
C    0.75807971  -0.02714999  -1.13011956
C    0.28934988   0.99862963  -0.04736998
N   -1.16575956   0.74586970   0.06617998
C   -1.18941951  -0.72187972   0.09409997
H    2.02698922  -0.00793000   1.00188959
H    0.54682976  -0.00128000   1.98663926
H    0.65093976  -2.04815912  -0.04897998
H    0.20998992  -0.03849998  -2.07784939
H    1.83218932  -0.02926999  -1.35003948
H    0.63214976   2.03087926  -0.08829997
H   -1.57995951   1.11000967   0.92387962
H   -1.76562929  -1.12163961  -0.74591970
H   -1.60807943  -1.10115957   1.03207958

