%chk=mol_0525.chk
# wB97XD/Def2SVP opt freq pop=full gfinput

C 4 H 6 N 2

1 2
N    1.13033962   0.01417999   0.32992989
C    2.37755895   0.01456999   0.02057999
C    3.20263886  -1.26709950  -0.09462997
C    4.53680801  -0.65435976  -0.47929981
C    4.44748831   0.68055975  -0.55117977
N    3.18204880   1.08278966  -0.25559989
H    0.78714973   0.97721964   0.34723985
H    2.80404902  -1.91336930  -0.87962967
H    3.24841881  -1.78428936   0.86629963
H    5.42888784  -1.23256958  -0.66763973
H    5.22035789   1.39397943  -0.80075967
H    2.89889884   2.04968929  -0.26597989

