%chk=mol_1407.chk
# wB97XD/Def2SVP opt freq pop=full gfinput

C 5 H 6 N 2

1 2
C    1.17598963  -0.39179987   0.57245976
C    2.34616899  -0.32473990   0.30923986
C    3.77741861  -0.24455991  -0.00831000
N    4.25703812   1.10508955   0.27747989
C    5.68434811   1.26612949  -0.03838998
C    6.59857750   0.52482980   0.85543966
N    7.30219746  -0.06856997   1.56332946
H    0.13755995  -0.44691983   0.80528969
H    3.92467833  -0.48207983  -1.06806970
H    4.31763840  -0.99167967   0.58365983
H    4.10155821   1.30628955   1.26554954
H    5.91893816   2.33416915   0.03688999
H    5.87032795   0.98880965  -1.08260965

