%chk=mol_3681.chk
# wB97XD/Def2SVP opt freq pop=full gfinput

C 5 H 10 O 2

1 2
O    2.68826890   3.35307884  -0.38651985
C    2.38747907   1.97707927  -0.19799992
C    3.31963873   1.37901950   0.84535968
C    4.73779821   1.27512956   0.30141988
C    5.60975790   2.54012895   0.30386990
C    6.58698750   1.70195937   1.11893964
O    5.61303759   0.64360976   1.27919948
H    2.02341938   3.70901871  -1.00152969
H    2.47873902   1.46320939  -1.16024959
H    1.35065949   1.90211928   0.14518994
H    2.95941901   0.37641987   1.10273957
H    3.30614877   1.98350930   1.75976932
H    4.78516817   0.71291971  -0.64050978
H    5.20077801   3.39788866   0.84497970
H    5.97278786   2.85681891  -0.67686975
H    7.46994686   1.34937954   0.57787979
H    6.88291740   2.13129902   2.07968926

