%chk=mol_6574.chk
# wB97XD/Def2SVP opt freq pop=full gfinput

C 3 H 3 N 1 O 2 S 1

1 2
C    0.95458966  -0.10464996   0.21482992
C    2.21669912   0.11788996  -0.17654994
S    2.92790890   1.68216944  -0.03243999
O    2.13577914   2.61126900   0.74443972
O    4.37198830   1.61118937   0.01724999
C    2.72767901   2.41848922  -1.67187929
N    2.57987905   2.85313892  -2.74363899
H    0.51507980  -1.09434962   0.12838995
H    0.32737988   0.67823976   0.63614976
H    2.83603883  -0.66976976  -0.58405977

