%chk=mol_2279.chk
# wB97XD/Def2SVP opt pop=full gfinput

C 6 H 10 O 1

1 2
C    1.910097   0.123966   0.749031
C    4.662540   0.061832  -0.091519
C    5.410456  -2.475371  -1.287905
C    5.074122  -2.060557  -4.061021
C    7.028383  -0.606149  -5.532116
C    4.773146   0.721989  -4.465536
O    5.019491   1.948251  -2.031777
H    1.429635   1.996023   1.489142
H    1.545739  -1.282482   2.219786
H    0.627805  -0.231284  -0.837243
H    5.890995   0.510906   1.511875
H    4.282460  -4.053047  -0.570433
H    7.400772  -2.890336  -0.888266
H    3.794721  -3.342170  -4.997891
H    8.851817  -0.238937  -4.676562
H    7.099078  -0.879724  -7.560322
H    3.321345   1.382278  -5.748622

