%chk=mol_5965.chk
# wB97XD/Def2SVP opt freq pop=full gfinput

C 5 H 7 N 1 O 1

1 2
O    0.92211968  -0.00847000   0.10949995
C    2.35485911   0.00601000   0.01532999
C    3.07126880   1.05458963   0.89506966
C    4.13766861  -0.01312000   1.23482955
C    3.09613895  -1.08174956   0.82388973
C    5.33765793   0.02554999   0.42061985
N    6.28854752   0.05094998  -0.24174991
H    0.63522977  -0.74624974  -0.45676982
H    2.67235899   0.05017998  -1.03425956
H    2.48549891   1.38088953   1.76318932
H    3.42381883   1.94504929   0.36531988
H    4.37989855  -0.04572998   2.30393910
H    3.46879864  -1.92648923   0.23624991
H    2.51854920  -1.47845948   1.66780937

