%chk=mol_0828.chk
# wB97XD/Def2SVP opt freq pop=full gfinput

C 5 H 8 O 1

1 2
C    1.45964944  -0.37417984  -0.22320992
O    2.85182905  -0.08772997  -0.19405992
C    3.09722877   1.30828953  -0.00935000
C    4.60395861   1.54553950   0.01827999
C    4.92426825   2.96920896   0.19851993
C    5.19065809   4.13005829   0.34474987
H    1.33254957  -1.44959950  -0.37335986
H    0.97669965   0.15388994  -1.05102956
H    0.99183965  -0.09601996   0.72606969
H    2.64283895   1.63701940   0.93341964
H    2.63829899   1.87057936  -0.83189970
H    5.05011797   1.17256963  -0.91136968
H    5.05278826   0.95205969   0.82375968
H    5.43154812   5.16079807   0.47419983

