%chk=mol_5726.chk
# wB97XD/Def2SVP opt freq pop=full gfinput

C 4 H 10 N 2 O 1

1 2
N    1.57688951  -2.04934931  -0.63985980
C    1.54396939  -0.85141969   0.19753993
C    2.67916894   0.11729996  -0.13910994
C    4.08118820  -0.48965982  -0.12245996
C    4.42585850  -1.09115958   1.21827960
N    4.12396860  -2.41576910   1.34287941
O    4.90857840  -0.45299983   2.14440918
H    0.73729968  -2.60113907  -0.45436984
H    1.50029945  -1.77035928  -1.62072933
H    1.59285939  -1.14868963   1.24958956
H    0.58443975  -0.34117988   0.05715998
H    2.63949895   0.94966966   0.57436979
H    2.50213909   0.54891980  -1.13239968
H    4.82564831   0.28458989  -0.34325987
H    4.19000864  -1.24895954  -0.90552968
H    3.45611882  -2.83705902   0.70175976
H    4.23867798  -2.83008885   2.25773931

