%chk=mol_1463.chk
# wB97XD/Def2SVP opt freq pop=full gfinput

C 6 H 7 N 1

1 2
C    2.67616916  -1.18128955   0.29576990
C    2.23706913   0.07601997   0.14757994
N    3.01128888   1.23700953   0.08592997
C    2.50869918   2.51719904  -0.06849997
C    3.54752874   3.42070889  -0.08866997
C    4.73976803   2.68365908   0.05778998
C    4.38717794   1.35590947   0.16224994
H    1.97125924  -2.00666928   0.32975987
H    3.72809839  -1.43022954   0.38661984
H    1.16737950   0.24821991   0.06293998
H    1.44208944   2.67696905  -0.15174994
H    3.45151877   4.49328852  -0.19732992
H    5.74927807   3.07294893   0.08490997
H    5.01030827   0.48185983   0.28552988

