%chk=mol_2202.chk
# wB97XD/Def2SVP opt pop=full gfinput

C 6 H 8 O 1

1 2
C    3.893025  -0.180053  -0.060112
C    1.484720  -1.643892   0.373202
C   -0.790189  -2.689666  -0.943465
C   -3.021937  -0.919824  -0.454574
C   -2.633126   1.435965   0.452174
O   -0.234931   2.478187   0.871863
C    1.519151   1.088048  -0.686405
H    5.105360  -0.795083  -1.592189
H    4.924948   0.488173   1.578734
H    1.198238  -1.953712   2.395114
H   -1.233689  -4.554637  -0.160305
H   -0.483562  -2.918644  -2.978662
H   -4.920337  -1.623067  -0.770045
H   -4.100290   2.766105   0.953575
H    1.334147   1.426290  -2.712607

