%chk=mol_1659.chk
# wB97XD/Def2SVP opt freq pop=full gfinput

C 5 H 12 N 2

1 2
C    1.10929954  -0.01300000   0.10679996
N    2.56164908   0.00266000  -0.01564999
C    3.15372872   1.03485954   0.88664967
C    4.24675846  -0.00668000   1.27419960
C    4.77198839  -0.03086999   2.68689895
N    5.33080769   0.03448999   0.26800990
C    3.17669892  -1.05272961   0.83863968
H    0.70123976  -0.87322968  -0.43353984
H    0.68759972   0.88825965  -0.35182986
H    0.75278968  -0.06316998   1.14221954
H    2.52052903   1.34043956   1.73051929
H    3.49815869   1.94145930   0.37793988
H    3.95351863  -0.05297998   3.41410875
H    5.37778759   0.85685968   2.90065885
H    5.39368820  -0.91539967   2.86449909
H    4.94555807   0.12619996  -0.67703974
H    5.89083767  -0.81592971   0.24293990
H    3.54219866  -1.92787921   0.28992987
H    2.55166912  -1.41223955   1.66813934

