%chk=mol_4737.chk
# wB97XD/Def2SVP opt freq pop=full gfinput

C 5 H 9 N 1 O 1

1 2
C    0.98254961  -0.06054998  -0.00804000
C    2.51452899  -0.04383998  -0.05643998
N    2.95869875  -0.81100971  -1.23462951
C    3.05892897   1.41800952  -0.02354999
O    2.54708910   2.10733914   1.11899960
C    4.53155804   1.46596944   0.02563999
C    5.73150778   1.51231945   0.07032997
H    0.61104977   0.41234985   0.90697968
H    0.59965974  -1.08737957  -0.01862999
H    0.55073977   0.47047985  -0.86372966
H    2.87581897  -0.56879979   0.83735973
H    2.61655903  -0.36476985  -2.08534908
H    2.54197907  -1.74112940  -1.21463954
H    2.70412898   1.95946932  -0.90823960
H    3.05343890   1.78612936   1.88480926
H    6.79563761   1.54977942   0.10231996

