%chk=mol_4239.chk
# wB97XD/Def2SVP opt pop=full gfinput

C 5 H 9 N 1 O 1

1 2
C    2.478999  -0.913645  -0.733913
C    4.099515   1.253833  -1.700281
C    4.711068   3.081671   0.368251
C    7.217941   3.065192   1.641171
N    6.556537   5.009570  -0.134719
C    6.142290   7.467688   0.688541
O    5.150826   8.123234   2.672734
H    2.057628  -2.237209  -2.265177
H    0.686953  -0.212972   0.024132
H    3.443459  -1.946418   0.775298
H    3.073640   2.246525  -3.202954
H    5.828312   0.485508  -2.547559
H    3.063586   3.718868   1.407922
H    8.700677   1.833979   0.970488
H    7.342909   3.661420   3.594977
H    6.837105   8.834205  -0.721063

