%chk=mol_5799.chk
# wB97XD/Def2SVP opt pop=full gfinput

C 4 H 11 N 1 O 2

1 2
N    2.336457  -0.487360  -0.907201
C    5.088125  -0.339433  -0.563422
C    5.885646   2.443756  -0.280398
O    4.395201   3.576836   1.679532
C    8.694366   2.692614   0.367476
C    9.493361   5.444943   0.693265
O    8.379537   6.524015   2.886273
H    1.823189  -2.344092  -1.022550
H    1.861664   0.287654  -2.609636
H    6.059350  -1.226924  -2.160222
H    5.564280  -1.388779   1.156890
H    5.474026   3.470690  -2.032722
H    2.755580   2.713269   1.558533
H    9.830431   1.818011  -1.126239
H    9.071989   1.689170   2.142004
H    8.954883   6.581538  -0.949134
H   11.545811   5.566226   0.911245
H    6.620844   5.928317   2.924370

