%chk=mol_4157.chk
# wB97XD/Def2SVP opt pop=full gfinput

C 4 H 6 N 2 O 1

1 2
C    1.882111   0.112401   0.012642
C    4.722029   0.105466  -0.003288
N    5.907227   2.242519   0.044749
N    8.542526   2.183919   0.025662
C    9.737475   0.061019  -0.018519
O    8.737489  -2.281542  -0.062002
C    6.068893  -2.395606  -0.088609
H    1.148330  -1.818654   0.015307
H    1.189715   1.095796  -1.668005
H    1.206855   1.093320   1.701736
H   11.813472  -0.029329  -0.024415
H    5.457283  -3.521127   1.536480
H    5.483399  -3.393287  -1.804329

