%chk=mol_1339.chk
# wB97XD/Def2SVP opt pop=full gfinput

C 5 H 10 N 2

1 2
C    1.661731  -0.478195   0.083715
C    4.525667  -0.192884   0.019067
C    5.681594  -1.718763  -2.130761
C    5.183594   2.559804  -0.330740
N    6.505892   3.749330   1.345391
N    6.879189   6.249116   0.624876
C    8.212996   7.428362   2.290745
H    0.848619   0.638161   1.626015
H    1.123990  -2.455397   0.370197
H    0.795291   0.177559  -1.678984
H    5.315800  -0.846522   1.819391
H    4.954068  -1.106945  -3.970277
H    5.267101  -3.733759  -1.910797
H    7.738258  -1.487158  -2.170294
H    4.495866   3.498544  -2.066642
H    8.683745   9.434514   2.009176
H    8.929220   6.521690   4.026534

