%chk=mol_0986.chk
# wB97XD/Def2SVP opt pop=full gfinput

C 4 H 9 N 1 O 1

1 2
C    1.780954  -1.039973   0.466725
C    4.396183  -0.137496  -0.335634
C    5.553981  -1.940428  -2.268125
N    4.244760   2.409306  -1.360565
C    6.268826   4.029104  -1.315684
O    8.317043   3.612514  -0.338809
H    0.965178   0.238691   1.877084
H    1.872190  -2.933554   1.297618
H    0.477609  -1.103317  -1.142132
H    5.624071  -0.086814   1.333032
H    4.416781  -2.016149  -3.997130
H    5.691628  -3.856874  -1.500273
H    7.458333  -1.331482  -2.803768
H    2.735889   2.888125  -2.433136
H    5.840898   5.822416  -2.288685

