%chk=mol_1005.chk
# wB97XD/Def2SVP opt pop=full gfinput

C 4 H 9 N 1 O 1

1 2
C    2.874614  -0.610627   0.648762
C    5.707162  -0.407538   0.241129
C    6.506649   2.214173  -0.590861
O    5.033210   3.974396  -0.909280
N    9.078396   2.413275  -0.963817
C   10.217957   4.795256  -1.625599
H    2.368432  -2.523106   1.250640
H    1.841009  -0.185666  -1.092980
H    2.236340   0.715620   2.103360
H    6.296397  -1.763889  -1.208234
H    6.692257  -0.866610   2.003582
H   10.209964   0.979445  -0.399469
H    9.122351   5.718198  -3.114458
H   12.144212   4.445581  -2.280805
H   10.254372   6.002810   0.050248

