%chk=mol_5439.chk
# wB97XD/Def2SVP opt pop=full gfinput

C 5 H 11 N 1 O 1

1 2
C    3.988947  -1.348433  -2.720544
O    5.741120  -0.596700  -0.825073
N    6.713252   1.779782  -1.481904
C    8.304099   2.473047   0.237123
C    9.665741   4.970698   0.039382
C    8.976823   6.603138   2.308490
C   12.501842   4.491841  -0.083734
H    3.241939  -3.208339  -2.219502
H    4.931751  -1.481318  -4.556545
H    2.420456  -0.004082  -2.818772
H    8.723222   1.278003   1.897852
H    9.060632   5.927901  -1.696199
H    9.538979   5.703704   4.086665
H    6.932252   6.916568   2.392223
H    9.904773   8.448833   2.197430
H   13.178515   3.514021   1.611029
H   13.542854   6.270565  -0.261557
H   12.974085   3.305717  -1.713056

