%chk=mol_4517.chk
# wB97XD/Def2SVP opt freq pop=full gfinput

C 6 H 11 N 1

1 2
C    0.82352972  -1.19304955   0.51616979
C   -0.43212983  -1.52005947  -0.30664989
C   -1.55941939  -0.52900982  -0.19989993
C   -1.46143949   0.76224971   0.15000995
C   -0.18796994   1.53111947   0.38613984
C    1.00671959   1.06759953  -0.46141982
N    1.69475937  -0.14712994  -0.01910999
H    1.42819953  -2.10495925   0.59362978
H    0.54596978  -0.94267964   1.54760945
H   -0.81636965  -2.48036909   0.06206998
H   -0.17758994  -1.67577934  -1.36166942
H   -2.55247903  -0.93212968  -0.39303985
H   -2.37975907   1.34161949   0.24074991
H    0.05599998   1.53344941   1.45493937
H   -0.38938984   2.57616901   0.11656995
H    1.75368941   1.87024927  -0.46620983
H    0.69069976   0.94513965  -1.50571942
H    2.22885919  -0.51767981  -0.80454969

