%chk=mol_3332.chk
# wB97XD/Def2SVP opt freq pop=full gfinput

C 5 H 8 O 2

1 2
C    1.01169956   0.13867995  -0.14595994
O    2.43080902   0.03932999  -0.16932994
C    3.10588884   1.22684944  -0.10529996
C    4.42307854   1.33717954  -0.24722992
C    4.81986809   2.75561881  -0.11012995
O    3.60528874   3.49117851   0.13445994
C    2.50163913   2.56134892   0.14462994
H    0.60097975  -0.87240964  -0.22368991
H    0.64621973   0.71914971  -0.99925959
H    0.66414976   0.57316977   0.79684967
H    5.10269833   0.52118981  -0.43148983
H    5.49814796   2.90890884   0.73416972
H    5.28346777   3.13872886  -1.02379954
H    1.80020928   2.85809898  -0.64029980
H    2.01369929   2.62080908   1.12164950

