%chk=mol_4342.chk
# wB97XD/Def2SVP opt pop=full gfinput

C 5 H 11 N 1 O 1

1 2
C    5.012896  -2.708469   0.154995
C    4.613275  -0.316680   1.708369
C    5.889010   2.003733   0.519788
C    5.034911   4.415912   1.864309
C    8.762396   1.840820   0.641486
N   10.004871   3.426924  -0.969656
O    9.945969   0.478365   2.090982
H    4.015498  -4.297162   1.026915
H    7.014115  -3.211401   0.029121
H    4.281836  -2.472631  -1.765930
H    5.313532  -0.631282   3.633395
H    2.572994   0.017726   1.857960
H    5.331522   2.127661  -1.474100
H    5.566169   4.382029   3.865794
H    2.980911   4.638276   1.746428
H    5.900386   6.096672   1.021567
H    9.118590   4.414382  -2.340445
H   11.914799   3.332060  -0.992012

