%chk=mol_0322.chk
# wB97XD/Def2SVP opt freq pop=full gfinput

C 5 H 9 N 1

1 2
C    0.82468975   0.07985996   0.06014998
C    2.28162932   0.07515997   0.38775983
C    3.19967866   0.81241965  -0.25798991
C    4.63140821   0.83352971   0.03539998
C    5.50364828  -0.27875990  -0.48575982
N    5.53095770   1.04467964  -1.09492958
H    0.50384980  -0.92687964  -0.22531991
H    0.58651978   0.76036972  -0.76362973
H    0.24678990   0.38968986   0.93633968
H    2.59393907  -0.57626981   1.19991958
H    2.87210894   1.46029937  -1.06984961
H    4.91272831   1.31641948   0.96523964
H    5.05376816  -1.06473958  -1.07994950
H    6.37175751  -0.56931978   0.09179997
H    6.35667753   1.56703949  -0.80013973

