%chk=mol_5636.chk
# wB97XD/Def2SVP opt freq pop=full gfinput

C 4 H 10 N 2 O 1

1 2
N    2.71180892  -0.92074966  -0.82404971
C    2.29015899   0.13119994   0.09168997
C    3.31510878   1.21501958   0.09379996
C    3.46675873   2.23483920  -1.00866961
N    2.62747908   2.20550919  -2.20952916
C    2.88505912   2.64081907   0.32139987
O    3.74677849   3.41645885   1.16892958
H    2.04588914  -1.69054925  -0.77352971
H    3.60229874  -1.30258954  -0.50695980
H    2.18697929  -0.27851990   1.10214961
H    1.30563951   0.50112981  -0.21286991
H    4.22512865   0.89444965   0.59171975
H    4.48760843   2.55640912  -1.20922959
H    1.66572940   1.95770931  -1.98109925
H    2.94293904   1.43674946  -2.80625892
H    1.82309926   2.85881877   0.36317986
H    3.82295871   4.32667828   0.83164972

