%chk=mol_5006.chk
# wB97XD/Def2SVP opt freq pop=full gfinput

C 4 H 8 N 2 O 1

1 2
C    1.19241953   0.00881000   0.12536995
N    2.62549901  -0.09545997   0.30797988
O    3.28861880   1.11713958   0.01425999
C    4.36144829   0.75671971  -0.87351966
C    4.72353840  -0.67469972  -0.57055980
C    3.37388873  -1.14655960  -0.15995994
N    3.05937886  -2.39102912  -0.25216991
H    0.68487972  -0.90409964   0.44873983
H    0.94970965   0.19135992  -0.92582965
H    0.79675967   0.83639967   0.72170973
H    4.00309849   0.87521970  -1.90269935
H    5.20477772   1.43532944  -0.71818972
H    5.12813854  -1.21028948  -1.43067956
H    5.39984798  -0.75639975   0.28496990
H    2.11650920  -2.53255916   0.11695996

