%chk=mol_3948.chk
# wB97XD/Def2SVP opt pop=full gfinput

C 5 H 7 N 1 O 1

1 2
C    1.846622  -0.026513  -0.015401
C    4.645174   0.130599  -0.000510
C    6.242162   2.199358   0.008768
C    8.726131   1.251282   0.021259
O   10.897162   2.547804   0.033202
C    8.631816  -1.332144   0.019483
N    6.131462  -2.006492   0.005990
H    0.997908   1.859925   0.001039
H    1.167057  -1.049497   1.649051
H    1.183706  -1.013139  -1.708294
H    5.653361   4.156736   0.006576
H   10.538795   4.350131   0.032352
H   10.110847  -2.740726   0.026494
H    5.480735  -3.804510   0.001568

