%chk=mol_3341.chk
# wB97XD/Def2SVP opt freq pop=full gfinput

C 6 H 12 O 1

1 2
C    1.26391947   0.92560965  -0.39537984
O    2.61990905   0.72123969  -0.02392999
C    3.41113853   1.88189924  -0.26849988
C    4.80922842   1.59534943   0.17241994
C    5.85004807   1.12057948  -0.81260967
C    5.93822765   2.51106906  -0.23748991
C    7.00788689   2.85470891   0.74251974
H    0.69898975   0.02453999  -0.14394996
H    1.18623960   1.09831965  -1.47266948
H    0.83629966   1.76973927   0.15379994
H    3.01425886   2.72340894   0.31132987
H    3.37195873   2.13667941  -1.33464956
H    4.83141804   1.17629957   1.17231953
H    5.56817770   1.01648962  -1.85439932
H    6.55444717   0.36812985  -0.47412980
H    5.71536779   3.34353876  -0.89589971
H    7.26478720   2.00668931   1.38569951
H    6.67970753   3.67934871   1.38211954
H    7.91371679   3.16972876   0.21643992

