%chk=mol_6684.chk
# wB97XD/Def2SVP opt freq pop=full gfinput

C 5 H 6 O 1 S 1

1 2
O    2.29502892  -0.59183973  -1.32100952
C    2.33418918  -0.07553997   0.00207000
C    2.82817888   1.33327949   0.00917000
C    2.01894927   2.45489907   0.01625999
S    2.90642905   3.91674852   0.03335999
C    4.39296818   3.07505894   0.01372999
C    4.21239853   1.71015930  -0.00036000
H    1.95804918  -1.50012946  -1.25631952
H    2.99309897  -0.71170974   0.60298979
H    1.32609940  -0.13404995   0.42691982
H    0.93773967   2.48810911   0.00935000
H    5.32701826   3.62006879   0.00833000
H    5.03595829   1.00593960  -0.02363999

