%chk=mol_4034.chk
# wB97XD/Def2SVP opt freq pop=full gfinput

C 4 H 6 N 2 O 1

1 2
C    0.99842966  -0.00746000  -0.00532000
C    2.47694898   0.04623998   0.00135000
C    3.30963874   1.14877963  -0.00614000
N    4.56627846   0.62873971   0.00114000
O    5.75292778   1.34699953  -0.01048000
C    4.47419834  -0.72784972   0.01284999
N    3.21689892  -1.11724949   0.01441999
H    0.56388980   0.99690968   0.00420000
H    0.63424975  -0.54620981   0.87465972
H    0.64222974  -0.52606982  -0.90063965
H    3.10602880   2.20867920  -0.01798999
H    5.41632795   2.25374913   0.06217998
H    5.34412766  -1.36852944   0.01855999

