%chk=mol_3070.chk
# wB97XD/Def2SVP opt pop=full gfinput

C 6 H 12 O 1

1 2
C    1.701188  -0.570867   1.037497
C    3.483559  -1.244706  -1.146780
C    2.143705  -2.956571  -3.068424
O    1.289606  -5.222164  -1.894791
C    4.482506   1.195006  -2.378296
C    6.452224   0.722953  -4.369746
C    6.213136   1.426101  -6.788709
H    2.657352   0.638765   2.418037
H    1.062442  -2.266519   2.035556
H    0.029007   0.438662   0.352434
H    5.074142  -2.297888  -0.328151
H    3.400865  -3.497241  -4.618623
H    0.497433  -2.006284  -3.885523
H    2.771718  -6.096653  -1.250167
H    5.345374   2.392809  -0.921790
H    2.898556   2.278651  -3.164346
H    8.177582  -0.224556  -3.772763
H    4.538612   2.394434  -7.473999
H    7.706114   1.049856  -8.145438

