%chk=mol_1245.chk
# wB97XD/Def2SVP opt pop=full gfinput

C 6 H 9 N 1

1 2
C    2.620653  -1.250602  -1.625901
C    4.851929  -0.844708  -1.519000
C    7.588422  -0.348295  -1.400193
C    8.414005   0.332100   1.291269
N   11.149138   0.819253   1.351664
C   11.803513   3.497600   1.467845
C   12.004731   1.836039   3.770060
H    0.642696  -1.613713  -1.726964
H    8.058246   1.197028  -2.699001
H    8.617756  -2.025409  -2.051392
H    7.997378  -1.262129   2.552037
H    7.290809   1.935476   1.985800
H   10.309004   4.893918   1.394637
H   13.536524   4.032884   0.518106
H   13.870400   1.244385   4.369802
H   10.636588   2.069250   5.274282

