%chk=mol_7140.chk
# wB97XD/Def2SVP opt freq pop=full gfinput

C 6 H 11 N 1

1 2
C    0.99999964   0.00000000   0.00000000
C    2.44399905   0.00000000   0.00000000
C    3.63415861   0.00000000   0.00000000
C    5.07815790   0.00000000   0.00000000
C    5.65272808   1.41924942  -0.01441999
C    5.30805826   2.18374920  -1.29624951
N    5.93010759   3.50419855  -1.28151953
H    0.60615975   1.02094960   0.01121000
H    0.60587978  -0.52011979   0.87845969
H    0.60595977  -0.50057977  -0.88976967
H    5.45819759  -0.55886978  -0.86307967
H    5.44650841  -0.51716977   0.89377964
H    6.74365759   1.35164952   0.08401997
H    5.28804827   1.97627926   0.85858965
H    4.22475815   2.30628896  -1.39804947
H    5.66537762   1.63080943  -2.17198920
H    5.57366800   4.03752851  -0.48939982
H    5.64504814   4.01601839  -2.11538935

