%chk=mol_7007.chk
# wB97XD/Def2SVP opt freq pop=full gfinput

C 6 H 11 N 1

1 2
C    2.32115912  -0.63151979  -1.44907951
C    2.40118909   0.17778993  -0.17957993
C    1.58573937  -0.10076997   0.85229969
C    3.45206881   1.21264958  -0.12706995
C    3.49249864   2.29117918  -1.18010950
C    3.07906890   2.63712883   0.21702991
N    3.96929836   3.44649863   1.04934955
H    3.30622864  -1.03492963  -1.70505941
H    1.97342932  -0.00926000  -2.27949905
H    1.63202941  -1.47766936  -1.35640943
H    0.83631968  -0.88394964   0.79535967
H    1.65103936   0.45338982   1.78367937
H    4.40942812   0.84061968   0.22581992
H    2.72351909   2.32373905  -1.94337928
H    4.46337795   2.62039900  -1.53152943
H    2.02334929   2.86505890   0.35353988
H    4.94669819   3.20231891   0.89616966
H    3.78890848   3.26696873   2.03680921

