%chk=mol_4910.chk
# wB97XD/Def2SVP opt pop=full gfinput

C 4 H 9 N 1 O 2

1 2
C    2.607633  -0.971319   0.332724
C    5.209389  -0.165219  -0.558093
O    5.981493   1.974348   0.918275
C    8.254834   2.988470   0.330664
N    9.707258   2.148751  -1.431732
O   11.889477   3.651102  -1.515258
C   13.479927   2.731561  -3.476397
H    1.937593  -2.609636  -0.733233
H    1.250337   0.573948   0.106335
H    2.642763  -1.451121   2.345320
H    5.128622   0.355080  -2.561429
H    6.552758  -1.718082  -0.288334
H    8.673238   4.614144   1.561613
H   15.166073   3.924073  -3.564817
H   12.502711   2.824800  -5.297091
H   14.059128   0.786769  -3.075605

