%chk=mol_7042.chk
# wB97XD/Def2SVP opt freq pop=full gfinput

C 6 H 7 N 1

1 2
C    0.97347963  -0.02991999  -0.07472997
C    2.31403923   0.00000000   0.00000000
C    3.01703882  -1.21762955   0.00000000
C    3.61211872  -2.24833918   0.00000000
C    3.13630867   1.21998966   0.01719999
C    2.74656892   2.39804912   0.87910968
N    3.86498857   1.54752946   1.24790955
H    0.39159986   0.88440967  -0.10430996
H    0.42630985  -0.96724963  -0.10299996
H    4.14701843  -3.16890860   0.00813000
H    3.65561867   1.43061948  -0.91299969
H    1.87645924   2.32846928   1.52003944
H    2.98479891   3.39484859   0.52933985
H    4.76014805   1.98038924   1.01943958

