%chk=mol_4918.chk
# wB97XD/Def2SVP opt pop=full gfinput

C 4 H 9 N 1 O 2

1 2
C    6.757850  -3.713576  -2.133633
C    7.662651  -2.018889  -0.007030
O    7.724010   0.517634  -0.909979
C    8.454049   2.248566   1.029258
O   11.009356   1.863969   1.815687
N   11.543279   3.483087   3.852282
C   13.857059   3.125834   4.532886
H    6.712251  -5.688265  -1.530754
H    7.999249  -3.543350  -3.778451
H    4.862681  -3.158318  -2.747473
H    9.557895  -2.604080   0.588007
H    6.369246  -2.165343   1.604245
H    7.163517   2.077168   2.642215
H    8.282953   4.156037   0.246496
H   14.655317   4.222196   6.109730
H   15.114748   1.747751   3.603349

