%chk=mol_1976.chk
# wB97XD/Def2SVP opt freq pop=full gfinput

C 7 H 12

1 2
C    2.06171918  -0.41913986   1.55827940
C    2.54406905   0.13034995   0.43611982
C    3.26460886   1.44756949   0.38543984
C    4.67528868   1.29853952  -0.19125992
C    5.38426828   2.62123919  -0.26007989
C    6.38301754   3.01090908   0.79836971
C    6.85437727   2.66045904  -0.58586979
H    1.54336941  -1.37260950   1.53089941
H    2.16872907   0.06608998   2.52316904
H    2.40407896  -0.39178985  -0.50836980
H    3.31878877   1.90314925   1.38196945
H    2.68180895   2.13562918  -0.23951991
H    4.61725855   0.88322967  -1.20487952
H    5.25046778   0.58459979   0.41262984
H    4.76921844   3.40003896  -0.69800973
H    6.60253763   2.31146908   1.59759939
H    6.42612791   4.05152845   1.09992969
H    7.20975733   3.46421885  -1.22072959
H    7.38151693   1.72323930  -0.72223973

