%chk=mol_5077.chk
# wB97XD/Def2SVP opt freq pop=full gfinput

C 5 H 11 N 1 O 1

1 2
C    0.93794966  -0.02227999   0.14408995
N    2.39388919   0.07074997   0.17427993
C    2.88410902   1.46492946   0.22007991
C    2.45302892   2.16698909   1.51497948
C    4.41714859   1.42322946   0.11789995
C    5.03867817   2.77156901  -0.15659994
O    4.41733837   3.77605867  -0.48662981
H    0.64919978  -1.06465960  -0.02583999
H    0.50959980   0.57826978  -0.66459972
H    0.49263981   0.27694991   1.09709966
H    2.75232887  -0.37702987  -0.67011970
H    2.48113894   2.01651931  -0.63877976
H    2.75472879   1.59337950   2.39857912
H    1.36783946   2.30585909   1.55394936
H    2.89954877   3.16280890   1.59850943
H    4.73736811   0.77083969  -0.70391977
H    4.85783815   1.03281963   1.04310966
H    6.14052773   2.79477882  -0.08945996

