%chk=mol_5809.chk
# wB97XD/Def2SVP opt freq pop=full gfinput

C 4 H 6 N 2 O 1

1 2
N    1.22441947  -0.16516994  -0.68372971
C    2.30241895   0.13393995  -0.03523999
N    2.88380885   1.36224937   0.09628996
O    4.06300831   1.41770947   0.86122966
C    4.43404818   2.82545877   0.81759971
C    3.39340878   3.50848889  -0.00715000
C    2.52133918   2.58028913  -0.39141986
H    1.04725957  -1.17112958  -0.59462976
H    2.85949874  -0.65942979   0.49372983
H    5.42652798   2.90854907   0.36557987
H    4.45514822   3.21030879   1.84115922
H    3.36066890   4.55877829  -0.24348991
H    1.63203931   2.67828894  -0.99688965

