%chk=mol_0450.chk
# wB97XD/Def2SVP opt pop=full gfinput

C 4 H 10 N 2

1 2
C    1.966392   0.538799  -1.223484
C    4.481826   0.704206   0.057070
N    6.364257   1.819844  -1.034738
N    8.498231   1.785073   0.401586
C   10.263783  -0.280001  -0.192336
C    9.909120   4.177391   0.354380
H    1.457376  -1.451007  -1.439499
H    2.016092   1.448740  -3.076191
H    0.550061   1.458547  -0.034658
H    4.630301  -0.161231   1.952824
H    9.303745  -2.107838  -0.040459
H   11.839625  -0.316151   1.149218
H   11.018747  -0.108621  -2.112619
H    8.672482   5.739155   0.919597
H   10.647926   4.593603  -1.534911
H   11.482883   4.139030   1.698524

