%chk=mol_7132.chk
# wB97XD/Def2SVP opt freq pop=full gfinput

C 6 H 15 N 1

1 2
C    0.96438962  -0.10073996  -0.00087000
C    2.49515891   0.01305000  -0.04068999
C    3.01352882  -0.81670970  -1.22708952
C    3.01746893   1.48873937  -0.03453999
C    2.60727906   2.27963901  -1.28700960
C    2.53166914   2.24617910   1.21545947
N    4.49009848   1.47000957   0.01030000
H    0.54746974   0.37358987   0.89176965
H    0.65990978  -1.15313959   0.02790999
H    0.49984980   0.35082987  -0.88243961
H    2.86810899  -0.47618982   0.87119967
H    2.62190914  -0.44898984  -2.18055916
H    2.70059896  -1.86214936  -1.12623954
H    4.10636854  -0.81256968  -1.27874947
H    2.99311876   1.82496929  -2.20561934
H    2.99184895   3.30658865  -1.25101948
H    1.51857936   2.35100913  -1.37846959
H    2.76786900   1.69592941   2.13356924
H    1.44990945   2.41434908   1.19028962
H    3.00130868   3.23459888   1.29248953
H    4.80394840   1.00649965   0.86224967
H    4.85106802   2.42225909   0.05550998

