%chk=mol_3759.chk
# wB97XD/Def2SVP opt freq pop=full gfinput

C 5 H 4 O 2

1 2
O    1.65815938  -0.70574975   0.87149972
C    2.36571908  -0.20751993   0.00014000
C    3.00886893   1.15096951   0.09796996
C    2.59962893   1.88209927   1.34981942
O    2.22779918   3.05442882   1.35496950
C    4.47547865   1.01735961   0.03574999
C    5.67248821   0.91068965  -0.01767999
H    2.55481887  -0.75348973  -0.94112962
H    2.65133905   1.73215938  -0.76015973
H    2.71042895   1.32534957   2.29730916
H    6.73380756   0.82286972  -0.06201998

