%chk=mol_0977.chk
# wB97XD/Def2SVP opt freq pop=full gfinput

C 4 H 9 N 1 O 1

1 2
C    2.04684925  -0.32714987   1.39138949
C    2.42032909   0.08553997  -0.01989999
C    3.04486895   1.46478939  -0.02226999
C    2.12598920   2.65917921   0.09218997
N    4.34143877   1.55000937  -0.07522997
O    4.76604795   2.88350892  -0.03435999
H    1.61203933  -1.33166957   1.39333951
H    1.31494951   0.36249989   1.82574928
H    2.92595887  -0.33208987   2.04488921
H    1.53514946   0.09362996  -0.66348970
H    3.13125896  -0.63333976  -0.44156983
H    1.08166957   2.34839916   0.00650000
H    2.34114909   3.37391877  -0.70588976
H    2.27321911   3.13705873   1.06416965
H    5.73621798   2.79334903  -0.08260997

