%chk=mol_3259.chk
# wB97XD/Def2SVP opt freq pop=full gfinput

C 5 H 8 O 2

1 2
C    3.69424844  -1.14360952  -0.78126967
C    3.61399865   0.01477999   0.19592993
O    4.91750813   0.58335978   0.31616986
C    5.07004833   1.65763938   1.16297948
C    4.11625862   2.24669933   1.90318918
C    6.45688772   2.21476936   1.25494945
O    6.77454710   3.16893864   1.95508921
H    2.71698904  -1.61877930  -0.90375966
H    4.41129875  -1.89394927  -0.43200982
H    4.04485846  -0.79882967  -1.75969934
H    3.27265882  -0.35693985   1.16886961
H    2.90941882   0.76187974  -0.18712993
H    3.08431888   1.92168927   1.90889919
H    4.35089827   3.09530878   2.54188895
H    7.19643688   1.68858933   0.62785977

