%chk=mol_6757.chk
# wB97XD/Def2SVP opt freq pop=full gfinput

C 6 H 13 N 1

1 2
C    0.92538965   0.11368996  -0.26455989
C    2.40692902   0.14194995   0.02625999
C    2.72331905   0.02953999   1.49800944
N    3.30331874  -0.55659980  -0.90102965
C    3.36923885   0.90797967  -0.91068965
C    2.83089876   1.63819945  -2.11727929
C    4.62484837   1.53400946  -0.35086986
H    0.69508976  -0.02066999  -1.32593942
H    0.45991984   1.04608953   0.07069997
H    0.44674981  -0.71615970   0.26909989
H    3.78075862  -0.16996995   1.69740927
H    2.15686917  -0.79205972   1.95005929
H    2.44653916   0.95584965   2.01253915
H    2.79755878  -0.91207969  -1.71331930
H    2.04141927   1.08995962  -2.63836908
H    3.63009858   1.81188941  -2.84680891
H    2.42861891   2.61180902  -1.81630933
H    5.15261793   0.88293970   0.35256985
H    4.38122797   2.46988893   0.16317995
H    5.33089828   1.76395929  -1.15706956

