%chk=mol_4578.chk
# wB97XD/Def2SVP opt freq pop=full gfinput

C 5 H 9 N 1 O 1

1 2
C    0.11842996   0.17733994  -1.09223962
C    1.33283949  -0.18429993  -0.25610989
C    2.21717930   1.02687955   0.01338000
O    3.33411884   0.59705979   0.79326969
C    4.20888853   1.67557943   1.15507948
C    5.03826809   2.14099932   0.03174999
N    5.68406820   2.53332925  -0.85231966
H   -0.49988979  -0.70876974  -1.26648962
H    0.41812983   0.57899976  -2.06548929
H   -0.49752980   0.92723966  -0.58575976
H    1.91691935  -0.96076965  -0.76454973
H    1.01164961  -0.62354976   0.69601977
H    1.65486944   1.78837931   0.56583977
H    2.56509900   1.45501935  -0.93306965
H    4.86328840   1.29529953   1.94656932
H    3.62689853   2.49714923   1.58760941

