%chk=mol_3910.chk
# wB97XD/Def2SVP opt freq pop=full gfinput

C 5 H 7 N 1 O 1

1 2
C    0.98750961  -0.03871998  -0.00800000
C    2.46755910   0.05643998  -0.00021000
C    3.30248880   1.15485966   0.00340000
C    4.63489819   0.67792976   0.01063000
C    4.58722830  -0.69700974   0.01122000
O    5.57884789  -1.57949948   0.01694999
N    3.26472878  -1.06472957   0.00448000
H    0.53018981   0.95574963   0.00073000
H    0.63221973  -0.58299977   0.87282968
H    0.64074975  -0.56372982  -0.90377969
H    2.98845887   2.19103932   0.00110000
H    5.53989792   1.27119946   0.01496999
H    5.21715832  -2.47986889   0.01572999
H    2.92004895  -2.01321936   0.00317000

