%chk=mol_4697.chk
# wB97XD/Def2SVP opt pop=full gfinput

C 5 H 11 N 1 O 1

1 2
C    2.075524   0.536626  -0.897091
C    4.891084   0.254622  -0.394329
N    6.057819   2.753841  -0.188878
C    8.776172   2.531931   0.313713
C    9.963695   5.153359   0.418971
C   12.762625   5.027711   0.926835
O   13.947275   3.074906   1.321750
H    1.186238  -1.326701  -1.037346
H    1.729553   1.542886  -2.673414
H    1.137861   1.574955   0.629487
H    5.746411  -0.812223  -1.948780
H    5.162959  -0.819442   1.354971
H    5.212375   3.728978   1.243345
H    9.686604   1.425383  -1.184443
H    9.092701   1.541034   2.107234
H    9.108215   6.293053   1.921209
H    9.700720   6.147203  -1.378461
H   13.734095   6.872934   0.953707

