%chk=mol_3850.chk
# wB97XD/Def2SVP opt freq pop=full gfinput

C 5 H 9 N 1 O 1

1 2
C    1.07859957   0.03025999   0.03049999
C    0.64288980   0.70268977   1.29905951
C   -0.48540980   0.12530996   2.11641932
N    0.89662969   0.05975998   2.58562899
C    2.56016922   0.11660995  -0.16856994
C    3.44541860  -1.08515954   0.03030999
O    3.04886889  -0.64988977  -1.27884948
H    0.75073969  -1.01701963   0.01236000
H    0.58142978   0.52677977  -0.81134975
H    0.75291973   1.78024924   1.26216960
H   -0.92419964  -0.81835967   1.81811929
H   -1.14651954   0.80280972   2.64172888
H    1.06564951   0.75631976   3.31458879
H    2.96910882   1.10758948  -0.02961999
H    3.00777888  -1.99999928   0.40980986
H    4.47491837  -0.92173964   0.32166988

