%chk=mol_1406.chk
# wB97XD/Def2SVP opt freq pop=full gfinput

C 5 H 8 N 2

1 2
C    0.44102985  -0.24371991  -1.59303939
C    1.14754963  -0.32441989  -0.45758983
C    2.36019921   0.49779981  -0.15150994
N    3.48813868  -0.40132985   0.07743996
C    4.70129824   0.32677987   0.48540980
C    5.29607773   1.17328954  -0.57032979
N    5.75059748   1.83681929  -1.40802956
H   -0.43335983  -0.86891967  -1.74676931
H    0.71527970   0.43898985  -2.39145923
H    0.82722968  -1.02317965   0.31288987
H    2.15400910   1.08819962   0.74871969
H    2.56964898   1.19493949  -0.97114968
H    3.67871857  -0.90902966  -0.78762972
H    5.44466829  -0.41940984   0.78917968
H    4.49351835   0.92739964   1.37860942

