%chk=mol_1807.chk
# wB97XD/Def2SVP opt pop=full gfinput

C 5 H 14 N 2

1 2
C    3.922221  -1.963728  -0.295969
N    6.111034  -0.436886   0.382707
C    5.565867   2.267671   0.051703
C    7.848921   3.894744   0.874773
N    7.570337   6.620051   0.328850
C    5.481188   7.750277   1.747165
C    9.928546   7.936491   0.937474
H    4.381122  -3.966913  -0.062266
H    3.363977  -1.663224  -2.265064
H    2.312439  -1.548290   0.936681
H    7.591068  -0.918671  -0.755097
H    3.914057   2.765917   1.195044
H    5.122556   2.657975  -1.934607
H    9.513335   3.198078  -0.154032
H    8.220687   3.590498   2.894531
H    3.660740   6.985580   1.130566
H    5.383282   9.790444   1.396356
H    5.668631   7.454025   3.787748
H   11.500514   7.176613  -0.175253
H   10.414961   7.781042   2.946423
H    9.786457   9.946856   0.456520

