%chk=mol_2727.chk
# wB97XD/Def2SVP opt pop=full gfinput

C 6 H 10 O 1

1 2
C    1.511894  -0.223196   0.225180
C    4.301470  -0.024113   0.627786
C    5.819865   1.974499   0.176519
C    4.873415   4.501725  -0.741170
C    8.577883   1.874098   0.629184
C   10.194373   0.306362  -1.125351
O   10.374899   3.003606  -1.067998
H    1.094378  -1.944358  -0.844216
H    0.715242   1.358770  -0.833048
H    0.545772  -0.349921   2.048218
H    5.169705  -1.747921   1.345523
H    2.843433   4.759370  -0.464835
H    5.294635   4.731213  -2.753369
H    5.804332   6.033669   0.295043
H    9.085066   1.896265   2.615249
H    9.345168  -0.539706  -2.782716
H   11.736824  -0.762977  -0.314847

