%chk=mol_4655.chk
# wB97XD/Def2SVP opt freq pop=full gfinput

C 4 H 7 N 1 O 2

1 2
C   -0.13758995  -0.91004968  -0.00858000
C    1.28721952  -1.32295954  -0.33261988
C    2.26559901  -0.18290994  -0.15642995
O    1.96838927   0.93833965   0.23676991
O    3.51877856  -0.63419974  -0.50939983
N    4.46699810   0.39338985  -0.36171985
C    5.62593794  -0.05161998  -0.70620972
H   -0.82074970  -1.75250936  -0.15363994
H   -0.46536982  -0.08818997  -0.65385973
H   -0.22344992  -0.57466984   1.03032959
H    1.33656955  -1.66427934  -1.37180948
H    1.58789945  -2.14198899   0.32928985
H    6.50405788   0.61115974  -0.65873981
H    5.79623795  -1.08382964  -1.05543959

