%chk=mol_1477.chk
# wB97XD/Def2SVP opt freq pop=full gfinput

C 6 H 13 N 1

1 2
C    1.02997959   1.00237966  -0.69261974
C    2.35657907   1.07940960   0.04602998
N    3.38199878   1.64345932  -0.82895964
C    4.69148827   1.71816933  -0.17593993
C    5.69861794   0.62927979  -0.42936984
C    5.90160799   1.99251926  -1.03043962
C    6.98231745   2.88688898  -0.52748978
H    0.25457990   0.59605980  -0.03454999
H    1.10286951   0.35100988  -1.57040942
H    0.70144975   1.99299920  -1.02661967
H    2.64544892   0.07379997   0.37115985
H    2.23521924   1.70251942   0.93944967
H    3.08911872   2.56831884  -1.14377964
H    4.69062805   2.16566920   0.81684971
H    5.42196798  -0.17996992  -1.09660959
H    6.32962799   0.32220989   0.39634988
H    5.76067781   2.09497905  -2.10062933
H    7.16728735   2.74876904   0.54290980
H    6.71036720   3.93392873  -0.69312978
H    7.91567707   2.68783879  -1.06254971

