%chk=mol_0964.chk
# wB97XD/Def2SVP opt pop=full gfinput

C 4 H 9 N 1 O 1

1 2
C    1.894261   0.152992   0.245041
C    4.714243  -0.237576  -0.058808
O    6.133333   1.761338   1.195044
C    7.782856  -0.109869   2.350649
C    5.940165  -2.242954   1.666493
N    7.217034  -4.198235   0.164161
H    0.854307  -1.449703  -0.546528
H    1.283974   1.859906  -0.750996
H    1.359582   0.345574   2.233637
H    5.256217  -0.320592  -2.060179
H    9.638416  -0.111721   1.434132
H    8.012647   0.230131   4.376095
H    4.791400  -2.938127   3.236666
H    8.289927  -3.522072  -1.288566
H    6.008687  -5.478316  -0.619188

