%chk=mol_4126.chk
# wB97XD/Def2SVP opt pop=full gfinput

C 5 H 9 N 1 O 1

1 2
C    1.726775   0.065819   0.300674
C    4.570057  -0.119487   0.072206
N    5.851234   1.710353   1.732028
C    7.562816  -0.018255   2.580912
O    9.599582   0.284631   3.553857
C    5.914408  -2.224094   1.624446
C    7.261216  -4.250901   0.122681
H    0.820973  -1.492657  -0.714619
H    1.038990   1.835264  -0.523265
H    1.098233  -0.010242   2.271130
H    5.224885   0.069164  -1.886910
H    6.503663   3.455156   1.304724
H    4.763773  -3.035070   3.149644
H    8.467484  -3.442835  -1.351060
H    5.892790  -5.508136  -0.786069
H    8.452027  -5.402047   1.362530

