%chk=mol_6662.chk
# wB97XD/Def2SVP opt pop=full gfinput

C 4 H 2 N 2 S 1

1 2
N    1.770957  -0.082883  -0.010828
C    3.964797  -0.044144  -0.003931
C    6.670677   0.093617   0.004290
C    8.034643   2.314896   0.001417
S   11.209100   1.642380   0.013776
C   10.501888  -1.524215   0.021826
N    8.085760  -2.108537   0.015987
H    7.351413   4.240432  -0.007049
H   11.972152  -2.947500   0.031180

