%chk=mol_0449.chk
# wB97XD/Def2SVP opt pop=full gfinput

C 6 H 6

1 2
C    1.744538   0.001020   0.005272
C    4.264356   0.000888  -0.001417
C    5.867713   2.215231  -0.005348
C    8.265152   1.374473  -0.011830
C    8.262355  -1.372319  -0.012227
C    5.868186  -2.212397  -0.006009
H    0.677694   1.751493   0.008371
H    0.678676  -1.749868   0.007842
H    5.244123   4.154317  -0.003402
H    9.951090   2.521065  -0.016119
H    9.947821  -2.519685  -0.016875
H    5.244236  -4.150651  -0.004630

