%chk=mol_6938.chk
# wB97XD/Def2SVP opt pop=full gfinput

C 6 H 13 N 1

1 2
C    3.480951  -0.199253   2.625774
C    3.746477   0.661688  -0.101875
C    6.061561   2.250418  -0.474548
C    6.001562   4.490008  -2.241593
N    6.077340   4.837359   0.497036
C    8.556208   5.587089   1.476897
C    8.437759   8.320766   2.359701
H    1.843995  -1.446529   2.832737
H    3.219111   1.418032   3.892061
H    5.165869  -1.225884   3.253409
H    2.036633   1.688981  -0.659496
H    3.877661  -0.998418  -1.332503
H    7.790075   1.156097  -0.351017
H    4.232080   4.990956  -3.142766
H    7.672477   4.916765  -3.343360
H   10.085903   5.384775   0.090216
H    9.043983   4.390268   3.098300
H    7.957523   9.594215   0.802283
H   10.272740   8.902518   3.119277
H    7.029346   8.560195   3.856024

