%chk=mol_4431.chk
# wB97XD/Def2SVP opt pop=full gfinput

C 5 H 7 N 1 O 1

1 2
C    1.889726   0.000000   0.000000
C    4.618491   0.000000   0.000000
C    6.867567   0.000000   0.000000
C    9.596332   0.000000   0.000000
O   10.489360   2.542173   0.231378
N   13.146428   2.533480   0.247535
C   13.918665   4.835242   0.464684
H    1.145117   1.929165   0.022733
H    1.145023  -0.984207   1.659331
H    1.145023  -0.944863  -1.682045
H   10.325161  -0.809918  -1.760847
H   10.323819  -1.114542   1.586463
H   15.956961   5.246787   0.516292
H   12.620309   6.460369   0.605941

