%chk=mol_5005.chk
# wB97XD/Def2SVP opt freq pop=full gfinput

C 4 H 6 N 2 O 1

1 2
C    1.01350963   0.06993997  -0.06153997
N    2.36705899  -0.05537998   0.43123984
O    3.14625859   1.08913958   0.16045994
C    4.40520811   0.57279980  -0.08343997
C    4.53666830  -0.75003970  -0.10620996
C    3.15993881  -1.14788961   0.16565993
N    2.81384873  -2.38848901   0.13128994
H    0.59793979   1.04892969   0.20203993
H    0.36952987  -0.69397974   0.38652986
H    0.98030967  -0.03830998  -1.15158951
H    5.16427803   1.31856954  -0.24697992
H    5.37967777  -1.38479948  -0.28785989
H    1.82393932  -2.46449900   0.37265986

