%chk=mol_6234.chk
# wB97XD/Def2SVP opt freq pop=full gfinput

C 4 H 7 N 1 O 2

1 2
O    2.56438923  -0.40613985  -1.54555941
C    2.11940932   0.03262999  -0.26802990
C    2.69860888   1.39754939   0.02776999
C    1.90499938   2.46409893   0.21299991
N    4.06320858   1.57192934   0.13003995
C    5.04838800   0.63865978  -0.03848998
O    6.23848772   0.90709966   0.08598997
H    2.09076929  -1.23253953  -1.74018931
H    2.43321896  -0.69225973   0.49019980
H    1.02335954   0.05542998  -0.28027987
H    0.82442969   2.38445902   0.14236996
H    2.30286932   3.45049882   0.42823982
H    4.42320871   2.49804902   0.32705989
H    4.70371819  -0.37717986  -0.27531990

