%chk=mol_0712.chk
# wB97XD/Def2SVP opt pop=full gfinput

C 5 H 12 O 1

1 2
C    1.729515  -0.174006  -0.008844
C    4.593187   0.080502  -0.001342
C    5.611107   2.808605  -0.020787
C    4.837850   4.244967  -2.406377
C    4.837321   4.293099   2.337062
O    8.317195   2.663153  -0.048660
H    1.203170  -2.175396   0.013039
H    0.894181   0.669436  -1.700943
H    0.882238   0.710065   1.656383
H    5.361512  -0.942123  -1.634859
H    5.345071  -0.915459   1.656043
H    5.401933   3.205051  -4.106318
H    5.797718   6.078644  -2.501752
H    2.799762   4.582926  -2.487824
H    5.389027   3.281868   4.057582
H    2.800555   4.640166   2.404658
H    5.806334   6.122713   2.400632
H    8.852895   1.797621   1.481602

