%chk=mol_1985.chk
# wB97XD/Def2SVP opt pop=full gfinput

C 5 H 8 N 2

1 2
N    4.021299  -0.838849  -2.453148
C    4.791212  -0.060736   0.063551
C    5.563051   2.637472   0.018066
C    4.141108   4.811356  -0.261198
C    5.806202   6.899447  -0.146454
C    8.203017   5.955661   0.199007
N    8.040690   3.373293   0.293550
H    3.738748  -2.738912  -2.478432
H    5.438386  -0.461849  -3.697079
H    6.347855  -1.259861   0.716981
H    3.215275  -0.319534   1.380086
H    2.113772   4.868842  -0.531410
H    5.306937   8.876459  -0.304473
H   10.009652   6.897992   0.380496
H    9.524031   2.190193   0.527857

