%chk=mol_5163.chk
# wB97XD/Def2SVP opt freq pop=full gfinput

C 4 H 8 N 2 O 1

1 2
C    0.90565968  -0.17391993   0.16274995
N    2.31598926  -0.03727999  -0.25081992
C    2.86602902  -1.40278947  -0.42373985
C    4.36731815  -1.33282948  -0.58239979
O    5.14927816  -2.06279922   0.02770999
N    2.53202915   0.79724973  -1.31137955
C    2.49749923   2.05153918  -0.99879962
H    0.48506981   0.80201972   0.42871985
H    0.81308967  -0.80601966   1.05275953
H    0.29525986  -0.60007977  -0.64135975
H    2.44585896  -1.88963926  -1.31064939
H    2.66147923  -2.02066922   0.45799983
H    4.74181795  -0.64875978  -1.36247945
H    2.65591908   2.80956912  -1.78169930
H    2.31805897   2.42497921   0.02473999

