%chk=mol_4110.chk
# wB97XD/Def2SVP opt freq pop=full gfinput

C 4 H 6 N 2 O 1

1 2
C    1.05400968  -0.04832998  -0.00464000
C    2.52219915   0.09724997  -0.00649000
N    3.24604893   1.19913960  -0.00891000
C    4.53746796   0.73141968  -0.00967000
C    4.54017830  -0.64303976  -0.00773000
N    5.48546839  -1.58441937  -0.00703000
O    3.24716878  -1.06397963  -0.00595000
H    0.56870979   0.93214965   0.00782000
H    0.72511977  -0.60460979   0.87804967
H    0.72129971  -0.58416975  -0.89847964
H    5.38459826   1.40102947  -0.01143000
H    6.47600746  -1.37316942  -0.01380000
H    5.23410797  -2.56644917  -0.01016000

