%chk=mol_0923.chk
# wB97XD/Def2SVP opt freq pop=full gfinput

C 4 H 8 O 2

1 2
O    0.31862989   0.08323997   0.37107986
C    1.63604939  -0.37089986   0.08460997
C    2.58418894   0.81298971  -0.06717997
O    3.89222860   0.31511989  -0.35312986
C    4.88691807   1.23457956  -0.52199978
C    4.82212830   2.56889892  -0.45874983
H   -0.23925990  -0.70914978   0.45807984
H    1.61622941  -0.96491969  -0.83571970
H    1.97119915  -1.02701962   0.89535969
H    2.58784914   1.39530945   0.86225969
H    2.23084903   1.45799947  -0.88113970
H    5.81780767   0.71818972  -0.73157972
H    3.90707850   3.10995889  -0.25170991
H    5.71741772   3.16256881  -0.61937976

