%chk=mol_2062.chk
# wB97XD/Def2SVP opt pop=full gfinput

C 6 H 9 N 1

1 2
N    1.800663   0.372049  -0.107412
C    4.510247  -0.164690   0.037719
C    6.073202   2.260585  -0.249406
C    8.884925   1.772714  -0.084622
C   10.295247   2.691046   1.813249
C   10.098432   0.348012  -2.031588
C   11.103293  -0.857463  -3.665596
H    0.824714  -1.284466   0.019880
H    1.383960   1.103581  -1.840669
H    4.996851  -1.526899  -1.444129
H    4.914781  -1.057321   1.861985
H    5.495078   3.618467   1.209878
H    5.655176   3.160189  -2.072104
H    9.464977   3.804926   3.322365
H   12.318709   2.358473   1.910003
H   12.000875  -1.930053  -5.116018

