%chk=mol_1569.chk
# wB97XD/Def2SVP opt pop=full gfinput

C 5 H 14 N 2

1 2
C    5.355125  -1.300982   2.576717
C    4.831161  -0.326809  -0.093334
N    2.085086  -0.318797  -0.545073
C    5.931246   2.359588  -0.528481
N    8.684747   2.606027  -0.109888
C   10.133978   1.164411  -1.976729
C    9.414804   5.275945  -0.226748
H    7.387998  -1.464783   2.927564
H    4.533132  -3.182110   2.853505
H    4.557981  -0.040194   4.013646
H    5.660221  -1.642418  -1.459265
H    1.227925   0.803360   0.767550
H    1.391311  -2.092135  -0.247781
H    4.958093   3.647701   0.778019
H    5.447665   2.993251  -2.446345
H    9.803351  -0.866194  -1.772809
H   12.165887   1.440368  -1.686959
H    9.677287   1.717213  -3.918876
H    8.421697   6.367167   1.225563
H    9.005112   6.118574  -2.073200
H   11.437397   5.493585   0.156243

