%chk=mol_1171.chk
# wB97XD/Def2SVP opt freq pop=full gfinput

C 6 H 15 N 1

1 2
C    2.92088866  -0.89979964  -1.10219955
C    2.49789906   0.04616998   0.01545999
C    3.05912900   1.49323940  -0.07370997
C    2.56846905   2.17789912  -1.36603940
C    2.49982905   2.29558921   1.12186956
C    4.61097813   1.53363943  -0.06724997
N    5.21820784   0.89358968   1.09694958
H    2.48334908  -1.88954937  -0.93309963
H    4.00607872  -1.02379954  -1.14093947
H    2.57260895  -0.55187982  -2.07848930
H    2.78852892  -0.40466985   0.97296965
H    1.40023947   0.08631997   0.02557999
H    2.98618889   1.70400941  -2.26046920
H    2.86666894   3.23255873  -1.38955951
H    1.47617936   2.14059925  -1.44456947
H    2.74375916   1.82287931   2.07926917
H    1.40757942   2.37267923   1.06704962
H    2.90281892   3.31455874   1.13810956
H    4.95344830   2.57567883  -0.10459996
H    5.00468826   1.05025959  -0.96892965
H    4.95601797   1.39632952   1.94333935
H    6.23234749   0.96662962   1.02976966

