%chk=mol_1694.chk
# wB97XD/Def2SVP opt freq pop=full gfinput

C 5 H 12 N 2

1 2
C    2.15543914  -0.24348991  -1.58364940
N    2.36263919   0.12337995  -0.18935993
C    3.06851888   1.39723945  -0.04785998
C    2.27434921   2.61853886  -0.48461983
C    3.00999880   3.76091838   0.19953991
N    3.62617874   3.21214867   1.41795945
C    3.37244868   1.76237929   1.40996945
H    1.66350937  -1.22016954  -1.63120949
H    3.10410881  -0.32011986  -2.12483907
H    1.50464940   0.47070983  -2.09687924
H    2.89791870  -0.61166978   0.27246988
H    4.01898861   1.35805953  -0.59919977
H    1.24113953   2.56589913  -0.11746996
H    2.24764895   2.74171901  -1.57155943
H    3.79634857   4.14726830  -0.45948982
H    2.33585906   4.58867836   0.43924984
H    4.63117838   3.38183880   1.38619947
H    4.22828865   1.20408952   1.80334938
H    2.51136899   1.55591953   2.05758929

