%chk=mol_4267.chk
# wB97XD/Def2SVP opt pop=full gfinput

C 4 H 4 N 2 O 1

1 2
C    5.088881  -2.084519   0.768741
C    4.164125   0.222988   0.279453
C    5.615151   2.474332   0.175253
C    4.787149   4.865553  -0.311181
O    6.836991   6.404395  -0.214597
N    8.948685   4.916576   0.341285
N    8.160518   2.539168   0.569337
H    3.858367  -3.723951   0.817023
H    7.086756  -2.392034   1.131228
H    2.144518   0.387640  -0.065290
H    3.000488   5.751117  -0.726089

