%chk=mol_4443.chk
# wB97XD/Def2SVP opt pop=full gfinput

C 4 H 10 N 2 O 1

1 2
C    2.546028  -0.957694  -0.197344
C    5.411401  -0.765112  -0.253790
C    6.292240   1.971948  -0.035678
C    9.148504   2.194709  -0.042368
O   10.602214   0.400225  -0.264788
N    9.967455   4.676864   0.229753
N   12.576637   5.214113   0.143733
H    1.957605  -2.933800  -0.359936
H    1.700772   0.095431  -1.764211
H    1.788097  -0.206471   1.574841
H    6.118914  -1.596724  -2.015110
H    6.202005  -1.888290   1.297807
H    5.581155   2.804467   1.723128
H    5.553225   3.079630  -1.623161
H    8.714869   6.136772   0.213520
H   13.375822   3.927021  -1.076199
H   13.325744   4.704001   1.856335

