%chk=mol_7085.chk
# wB97XD/Def2SVP opt freq pop=full gfinput

C 6 H 13 N 1

1 2
C    0.53720981  -0.41013983   0.22979991
C    1.98403919  -0.02928999   0.23101991
C    2.53175926   1.18506956   0.02131999
C    1.75382936   2.44328904  -0.26214990
C    4.04450846   1.35069942   0.01924999
C    4.56425810   2.20002913   1.18705964
N    6.02489805   2.28352904   1.16794956
H    0.38756984  -1.26557958  -0.43690985
H   -0.12930995   0.38462988  -0.10773996
H    0.23212992  -0.70831972   1.23724961
H    2.65097904  -0.87043965   0.42153984
H    0.67839974   2.28092933  -0.35434985
H    2.09336925   2.89216900  -1.20147955
H    1.89946926   3.17139864   0.54181981
H    4.34690809   1.80220926  -0.93478966
H    4.52994823   0.36595988   0.05133998
H    4.24127817   1.77108932   2.14224935
H    4.16362810   3.21707869   1.12821960
H    6.41981745   1.35079956   1.28394949
H    6.33932781   2.82654905   1.97137928

