%chk=mol_5452.chk
# wB97XD/Def2SVP opt pop=full gfinput

C 4 H 10 N 2 O 1

1 2
C    6.725365   2.109199  -0.929103
O    6.344982   3.449355  -3.240219
N    6.565003   6.041039  -2.677307
C    4.123911   7.305171  -2.681276
C    8.690473   7.131807  -3.754395
C    9.015335   9.965508  -3.683322
N   10.463943   5.820942  -4.831141
H    6.997183   0.111834  -1.384224
H    5.053903   2.291350   0.274388
H    8.404840   2.785778   0.070827
H    2.725439   6.186661  -1.644459
H    3.443950   7.567862  -4.616809
H    4.243494   9.150470  -1.756576
H    8.713773  10.652613  -1.757804
H    7.642412  10.849257  -4.950157
H   10.918611  10.494878  -4.288885
H    9.871305   3.973811  -4.726337

