%chk=mol_4293.chk
# wB97XD/Def2SVP opt freq pop=full gfinput

C 5 H 5 N 1 O 1

1 2
C    1.05803967  -0.04800998  -0.00940000
C    2.25745916   0.01799999  -0.01478999
C    3.68347859   0.09900996  -0.02015999
N    4.32484818  -1.01439965  -0.08863997
O    5.69973755  -0.65880972  -0.05844998
C    5.78411770   0.74376971  -0.35730988
C    4.47093868   1.33252943   0.09340996
H   -0.00484000  -0.12125996  -0.00427000
H    5.93215752   0.85599965  -1.43714941
H    6.63855743   1.18262959   0.16535993
H    4.11328840   2.14239907  -0.54409981
H    4.49640846   1.64917934   1.13984954

