%chk=mol_6782.chk
# wB97XD/Def2SVP opt freq pop=full gfinput

C 5 H 12 N 2

1 2
C    1.04347956   0.00333000  -0.12890996
C    2.55644894   0.00295000   0.02906999
C    3.05652905   1.08323956   0.97765964
N    4.43901825   0.68279976   1.26503956
C    4.42856836  -0.79132968   1.32462955
C    3.11133885  -1.26366949   0.67835975
N    3.26939893  -2.37216926  -0.25987992
H    0.71808976  -0.79855967  -0.79849970
H    0.70049971   0.95507962  -0.54881978
H    0.54081982  -0.13724995   0.83483970
H    3.01371884   0.15642995  -0.95919961
H    2.47759891   1.10963964   1.90682924
H    3.01862884   2.07958913   0.52459979
H    5.02425814   0.95983964   0.47504982
H    5.31410789  -1.18589950   0.81151968
H    4.48107815  -1.12466955   2.36732888
H    2.43804908  -1.59250939   1.47968948
H    3.91423845  -2.10271907  -1.00270963
H    2.37956905  -2.56272912  -0.71731973

