%chk=mol_4466.chk
# wB97XD/Def2SVP opt freq pop=full gfinput

C 5 H 13 N 1 O 1

1 2
C    1.01607966  -0.22735992  -0.07683997
C    2.54990911  -0.23332991   0.03401999
C    2.96295905  -1.08075964   1.24561954
N    3.10755897  -0.85827971  -1.17795956
C    3.05612874   1.22648954   0.15723994
C    4.57399797   1.39341950   0.25868991
O    5.22472811   0.92698967  -0.91407967
H    0.67886978   0.34856987  -0.94649965
H    0.56101978   0.22097993   0.81384969
H    0.61614978  -1.24334955  -0.17580993
H    2.61923909  -0.62202972   2.17960906
H    4.04961872  -1.20117962   1.31233954
H    2.53077912  -2.08735919   1.19406950
H    2.73403907  -0.38268986  -2.00406933
H    2.76881909  -1.82021928  -1.25009954
H    2.59908891   1.69432938   1.03857958
H    2.70909905   1.79384935  -0.71735972
H    4.98521805   0.86471969   1.12332952
H    4.82197809   2.45368910   0.37543988
H    4.78363800   0.07898997  -1.14412963

