%chk=mol_7138.chk
# wB97XD/Def2SVP opt freq pop=full gfinput

C 6 H 9 N 1

1 2
C    1.04979956  -0.02599999   0.42833987
C    2.51999903   0.00000000   0.00000000
C    2.72837901  -0.62805974  -1.39105952
C    2.35181928  -2.08469915  -1.45475948
C    1.39733946  -2.57572913  -2.25574923
C    3.00201893   1.36116946   0.00000000
N    3.38622880   2.44615912   0.00000000
H    0.91530961   0.46778983   1.39831948
H    0.67993975  -1.05157959   0.53049982
H    0.41250986   0.49439979  -0.29659986
H    3.09417868  -0.57761973   0.73606974
H    3.78658867  -0.54827982  -1.67340934
H    2.17136931  -0.05627998  -2.14610910
H    2.90658903  -2.76973915  -0.81597966
H    0.82123971  -1.93917930  -2.91985893
H    1.17237961  -3.63839841  -2.26561904

