%chk=mol_4762.chk
# wB97XD/Def2SVP opt freq pop=full gfinput

C 4 H 7 N 1 O 2

1 2
C    1.13388968  -0.91886967  -0.17976993
C    2.26863933   0.05339998   0.07707997
N    1.77467930   1.40437937   0.21283992
C    1.86991942   2.34478903  -0.78549969
O    2.41660905   2.20946908  -1.86835933
C    1.21922958   3.67195868  -0.44344983
O    0.53342980   3.79389858   0.56282979
H    1.51763940  -1.93873930  -0.27780992
H    0.59420979  -0.66299975  -1.09870958
H    0.41179985  -0.90271962   0.64469975
H    2.99627876   0.00454000  -0.73824972
H    2.77882910  -0.20056991   1.01019967
H    1.24724960   1.67234945   1.04164958
H    1.42867947   4.48142862  -1.15995967

