%chk=mol_1473.chk
# wB97XD/Def2SVP opt freq pop=full gfinput

C 5 H 8 N 2

1 2
C    1.13477957  -0.10546996  -0.58617979
C    2.36985922   0.10904996  -0.12248995
N    3.02964878   1.29785955   0.08918997
C    4.38846874   1.38195956   0.59998983
C    4.62188816   2.89943886   0.66462976
N    3.39752865   3.56832862   0.14340995
C    2.60364914   2.57532883  -0.12944995
H    0.75651973  -1.11671960  -0.69584978
H    0.47171983   0.70472974  -0.86607969
H    2.97975898  -0.75402969   0.14015995
H    5.10164785   0.90474963  -0.08122997
H    4.47825813   0.92666966   1.59157944
H    5.48698759   3.18879867   0.05866998
H    4.80311823   3.22267866   1.69569933
H    1.59062946   2.70844913  -0.53734976

