%chk=mol_2685.chk
# wB97XD/Def2SVP opt freq pop=full gfinput

C 6 H 12 O 1

1 2
C    1.09280956  -0.21122992  -0.21959992
C    2.59859896  -0.16664994  -0.41877985
C    3.24869895   0.90921968   0.45016983
C    4.73114824   0.96585965   0.22863992
C    5.64455795   1.39430952   1.34812951
C    5.63544798  -0.03739999   0.89297962
O    6.77127743  -0.46566984   0.13056995
H    0.65124977  -0.99686962  -0.84086972
H    0.63186979   0.74177974  -0.49841982
H    0.84069967  -0.42267984   0.82474971
H    2.82004881   0.02169999  -1.47556949
H    3.02395868  -1.14769959  -0.17659993
H    3.02215886   0.71559972   1.50650942
H    2.82136893   1.89018929   0.20811993
H    4.97591782   1.29540956  -0.77468973
H    5.21509838   1.61118937   2.31970906
H    6.50237799   2.00867915   1.10393953
H    5.18667793  -0.76861972   1.55828941
H    7.10495758   0.23220991  -0.45980981

