%chk=mol_6064.chk
# wB97XD/Def2SVP opt freq pop=full gfinput

C 4 H 7 N 1 O 2

1 2
O    1.34258950   0.12955995   0.83779973
C    2.39923906   0.06677997   0.21456993
C    3.12010884  -1.25417948  -0.09772997
O    4.02360821  -1.24465954  -1.20103955
C    4.89684772  -0.11326995  -1.12867963
C    4.07334852   1.17074955  -1.19434965
N    3.05872869   1.21325958  -0.16127993
H    2.36073923  -2.01339912  -0.30537987
H    3.66760874  -1.55682933   0.80205971
H    5.48693752  -0.16878994  -0.20675991
H    5.58593798  -0.16266994  -1.97766924
H    4.70924807   2.05449915  -1.08425963
H    3.54441881   1.22992957  -2.15180898
H    2.53517890   2.06604934  -0.00536000

