%chk=mol_3883.chk
# wB97XD/Def2SVP opt pop=full gfinput

C 4 H 6 N 2 O 1

1 2
C    1.911723   2.161015  -0.531013
O   -0.252997   2.481570   1.052785
N   -2.496442   1.632818  -0.111267
C   -2.643935  -0.807971  -0.162535
N   -0.922640  -2.677874   0.389983
C    1.664679  -2.483837   0.334954
C    3.034692  -0.410373  -0.138158
H    3.288350   3.589440   0.056654
H    1.459341   2.505191  -2.522595
H   -4.446261  -1.630002  -0.812828
H   -1.584762  -4.476875   0.369366
H    2.606594  -4.285464   0.636384
H    5.078866  -0.547794  -0.224008

