%chk=mol_4233.chk
# wB97XD/Def2SVP opt pop=full gfinput

C 5 H 5 N 1 O 1

1 2
C    5.202416  -2.249341   0.685555
C    4.322503   0.078896   0.213974
C    5.765876   2.358492   0.038418
N    4.700902   4.607247  -0.443594
O    6.650079   6.345171  -0.472091
C    8.861625   5.145895  -0.011168
C    8.415536   2.618537   0.326677
H    3.909900  -3.840849   0.772766
H    7.188934  -2.644483   0.993694
H    2.295715   0.292851  -0.070940
H   10.524320   6.327597   0.011282
H    9.804277   1.179888   0.722782

