%chk=mol_0564.chk
# wB97XD/Def2SVP opt pop=full gfinput

C 4 H 10 N 2

1 2
N    4.959624  -0.991558   2.408607
C    4.553843   0.272706  -0.001890
C    5.354936   3.006025   0.122171
C    3.644545   4.864552  -0.191316
C    8.146080   3.432555   0.571642
N    8.925743   6.080100   0.478516
H    4.203866  -2.759435   2.324193
H    3.957861  -0.053045   3.762634
H    2.554116   0.103765  -0.515139
H    5.632083  -0.698651  -1.479183
H    1.660295   4.464648  -0.517331
H    4.175690   6.843832  -0.091330
H    9.233580   2.386082  -0.848600
H    8.662864   2.681049   2.429564
H    8.750812   6.702291  -1.334355
H   10.802147   6.179329   0.897733

