%chk=mol_5877.chk
# wB97XD/Def2SVP opt pop=full gfinput

C 4 H 7 N 1 O 2

1 2
N    3.211892  -1.175259   1.274583
C    5.437347  -0.871636  -0.010261
O    6.559164  -2.701609  -0.890193
C    6.316031   1.919451  -0.275730
O    5.097328   3.482595   1.557002
C    9.147257   2.142383  -0.062115
C   10.447540   3.895614   1.226413
H    2.158162   0.356629   1.734447
H    2.450162  -2.922877   1.380502
H    5.713833   2.558519  -2.149809
H    5.808829   2.983594   3.180126
H   10.216275   0.721516  -1.102277
H    9.520497   5.410853   2.252856
H   12.500085   3.879022   1.228605

