%chk=mol_0227.chk
# wB97XD/Def2SVP opt pop=full gfinput

C 6 H 12

1 2
C    1.782125  -0.016025   0.092578
C    4.644512   0.017461   0.019219
C    5.973443   1.983570   1.734088
C    8.003671  -0.043596   2.318184
C   10.381928   0.050777   0.705907
C    6.018437  -2.058139   1.560271
H    1.048156  -1.642455  -0.955030
H    1.012780   1.697050  -0.773427
H    1.066561  -0.129427   2.031134
H    5.317652   0.110757  -1.940598
H    4.876022   2.542683   3.400978
H    6.635849   3.692223   0.779040
H    8.516183  -0.123305   4.325640
H    9.948690   0.121396  -1.315401
H   11.553313  -1.619533   1.048817
H   11.507204   1.721786   1.175788
H    6.717731  -3.663725   0.463229
H    4.936040  -2.782357   3.172378

