%chk=mol_5771.chk
# wB97XD/Def2SVP opt freq pop=full gfinput

C 6 H 11 N 1

1 2
C    1.00448966   0.11353996   0.19136992
C    2.49337912  -0.06201998  -0.08386996
C    2.84926891  -1.50085938  -0.50855982
C    2.78813910  -1.50001943  -2.04165936
C    3.19708872  -0.10780996  -2.41750908
N    2.21253920   0.95901966  -2.45429897
C    2.98623872   0.78545970  -1.23134959
H    0.77469969   1.15977955   0.42035985
H    0.69791979  -0.49700981   1.04761958
H    0.38889986  -0.18237993  -0.66513979
H    3.04591894   0.19170992   0.82826966
H    2.20352912  -2.26338911  -0.06239998
H    3.88082862  -1.71590936  -0.19902992
H    3.46327853  -2.25117922  -2.46195912
H    1.77243936  -1.71627939  -2.39059901
H    4.09869862  -0.02098999  -3.00613880
H    2.55562901   1.75673938  -2.99242902
H    3.73003864   1.52643943  -0.97647965

