%chk=mol_6616.chk
# wB97XD/Def2SVP opt freq pop=full gfinput

C 4 H 5 N 1 O 1 S 1

1 2
C    3.02420878  -1.23642945   0.55254984
O    2.36893916  -0.00743000   0.26799989
C    3.11837888   1.10090959   0.16914994
C    2.64933896   2.37573910  -0.10113996
N    3.58738875   3.38906884  -0.16176994
C    4.77470779   2.87716889   0.06428998
S    4.83061790   1.19152951   0.35528985
H    2.26106930  -2.02026939   0.59505975
H    3.52172852  -1.20411956   1.52767944
H    3.72989869  -1.50273943  -0.24150991
H    1.60578930   2.61519909  -0.26430991
H    5.67214775   3.48181868   0.06783998

