%chk=mol_5501.chk
# wB97XD/Def2SVP opt freq pop=full gfinput

C 5 H 11 N 1 O 1

1 2
N    1.04764962   0.01719999   0.07430997
C    2.49821901   0.01822999  -0.05721998
C    3.08637881   1.06210959   0.91606969
C    4.13893843  -0.00339000   1.29596961
C    3.10299873  -1.07866955   0.86295968
C    3.65359879  -2.29856920   0.14872995
O    4.34222841  -3.12770891   1.07743955
H    0.58967978  -0.77964973  -0.36763987
H    0.59834975   0.84767967  -0.30874988
H    2.88721895   0.06183998  -1.07949960
H    2.44645905   1.34985948   1.75906932
H    3.48613882   1.96828926   0.45292982
H    5.04296780   0.03516999   0.67653972
H    4.43127823  -0.02369999   2.34910917
H    2.44933915  -1.36989951   1.69958937
H    4.34524822  -2.02926922  -0.65586978
H    2.84074879  -2.88819909  -0.28606990
H    5.06571817  -2.60372901   1.46085942

