%chk=mol_1604.chk
# wB97XD/Def2SVP opt freq pop=full gfinput

C 5 H 12 N 2

1 2
C    0.68811971   2.82436895   0.33465987
C    2.03208923   2.11599922   0.39439985
N    3.11551905   3.06159878   0.12184995
N    4.35862827   2.52759886   0.11467995
C    5.34272766   3.33619881  -0.15510994
C    5.19659758   4.80808830  -0.46147981
C    6.74064779   2.76947904  -0.14913996
H   -0.11955995   2.11767936   0.54891980
H    0.51023978   3.25023890  -0.65782976
H    0.63206977   3.63288856   1.07087958
H    2.04798937   1.30628955  -0.34418988
H    2.16649938   1.67019939   1.38703942
H    3.04290891   3.84477854   0.77405971
H    4.50043821   4.95133829  -1.29258943
H    6.16370773   5.23454809  -0.74202973
H    4.82899809   5.33318758   0.42407984
H    6.72342730   1.69523942   0.05127998
H    7.32788706   3.26953864   0.62574971
H    7.20585728   2.94370890  -1.12311959

