%chk=mol_0835.chk
# wB97XD/Def2SVP opt freq pop=full gfinput

C 4 H 8 O 2

1 2
C    3.16621876  -0.91067970   0.66497976
O    2.98737884   0.34761986   1.30749953
C    3.19163871   1.44633949   0.42272985
C    2.65343904   2.69632912   1.10306966
C    4.66891813   1.65289938   0.13019995
O    5.14868832   1.61848938  -0.99949962
H    2.93447876  -1.69775939   1.38760948
H    4.20306826  -1.03517962   0.33965987
H    2.48695898  -1.00986969  -0.18689993
H    2.65201902   1.28570950  -0.51800978
H    3.14941883   2.86605906   2.06588936
H    1.58383942   2.58808899   1.31262946
H    2.80208898   3.58488870   0.48116982
H    5.30838823   1.83017933   1.01244962

