%chk=mol_0604.chk
# wB97XD/Def2SVP opt freq pop=full gfinput

C 6 H 10

1 2
C    0.99660963   0.20419993  -0.32453990
C    2.45964909   0.05599998   0.00288000
C    3.00123882  -1.16603959   0.14517994
C    3.24069881   1.30448949   0.08159997
C    2.84905887   2.36604929   1.07788968
C    4.10167837   1.56985939   1.29133952
H    0.86816967   0.81413966  -1.22494960
H    0.46485981   0.68828970   0.50144982
H    0.51410979  -0.76193970  -0.50895983
H    2.40693927  -2.06960917   0.05953998
H    4.06035852  -1.28801954   0.35139987
H    3.62180877   1.64641929  -0.87756968
H    2.02120924   2.18371916   1.75287926
H    2.95080900   3.40216875   0.77632976
H    5.05280828   2.06497931   1.13382959
H    4.10759830   0.85346967   2.10461926

