%chk=mol_5042.chk
# wB97XD/Def2SVP opt freq pop=full gfinput

C 4 H 8 N 2 O 1

1 2
C    1.14344954  -0.00598000   0.28321987
N    2.54804921   0.08209997  -0.08248997
C    3.01535892   1.24666953  -0.30701989
N    2.44132924   2.48200893  -0.22785991
C    3.45923877   3.49642873  -0.20590992
C    4.61671829   2.75979900  -0.85363966
O    4.33225822   1.36818945  -0.65018976
H    0.83714974  -1.05654955   0.27490988
H    0.49941981   0.52640980  -0.42475984
H    0.97650963   0.37967986   1.29409957
H    1.66617942   2.57075906   0.41449982
H    3.17478871   4.39677858  -0.75597972
H    3.69782853   3.76714849   0.82768971
H    4.67563820   2.94693899  -1.93135929
H    5.57613802   3.01458907  -0.39297986

