%chk=mol_7061.chk
# wB97XD/Def2SVP opt freq pop=full gfinput

C 6 H 11 N 1

1 2
C    2.75008893  -0.81221968  -1.24369955
C    2.32810926   0.05860998  -0.06692997
C    3.06759906   1.38334954  -0.02843999
C    2.39302921   2.53371906  -0.21136992
C    4.52319813   1.32944953   0.19107993
C    5.13132811   2.08075905   1.35087955
N    5.01094818   0.63152975   1.37899947
H    2.16711926  -1.73842931  -1.25375950
H    3.80810857  -1.08576953  -1.18109953
H    2.58476925  -0.29724988  -2.19550896
H    2.49413919  -0.48499984   0.87115967
H    1.24483955   0.22399992  -0.13131995
H    1.32071948   2.54727912  -0.37560984
H    2.90183902   3.49145865  -0.19426994
H    5.12000799   1.21946955  -0.70906973
H    4.48326826   2.61961913   2.03088927
H    6.12802792   2.48705912   1.23686957
H    5.90684795   0.18296993   1.18423951

