%chk=mol_4444.chk
# wB97XD/Def2SVP opt pop=full gfinput

C 4 H 7 N 1 O 2

1 2
C    1.845979  -0.295912  -0.096093
C    4.647101   0.027873  -0.005367
C    5.814498   2.278632   0.028081
C    8.613239   2.421363   0.118316
O    9.997559   0.562345   0.162668
N    9.521310   4.841119   0.147928
O   12.174050   5.122783   0.234477
H    1.314286  -1.362379  -1.786301
H    0.850415   1.516978  -0.137459
H    1.203812  -1.346940   1.565185
H    5.760887  -1.703588   0.034374
H    4.755590   4.029047  -0.009789
H    8.472209   6.443437   0.116161
H   12.753214   3.357722   0.252449

