%chk=mol_6601.chk
# wB97XD/Def2SVP opt freq pop=full gfinput

C 4 H 6 N 2 S 1

1 2
C    0.90453964  -0.00907000  -0.00080000
N    2.35445905  -0.11792996   0.00553000
C    3.00404882   0.98294961   0.00659000
N    2.61622906   2.30010915   0.00310000
C    3.62765861   3.22561884   0.00674000
C    4.86029816   2.70021915   0.01313999
S    4.79486847   0.94775963   0.01476000
H    0.46996981  -1.01351964  -0.00957000
H    0.54484981   0.51273978  -0.89401966
H    0.53715980   0.50087982   0.89609969
H    1.64846945   2.58017898  -0.00111000
H    3.37900877   4.27846813   0.00445000
H    5.79013777   3.25066876   0.01703000

