%chk=mol_5536.chk
# wB97XD/Def2SVP opt freq pop=full gfinput

C 5 H 5 N 1 O 1

1 2
N    1.03498960   0.07254997  -0.18209994
C    2.39140916  -0.03801998  -0.10136996
C    3.13222885  -1.15032947  -0.04971998
C    4.52161837  -0.68321973   0.03275999
O    5.50589800  -1.39379954   0.10588996
C    4.52584839   0.78445971   0.02033999
C    3.23828864   1.12595963  -0.06035998
H    0.53155977  -0.76945972   0.08545997
H    0.65695977   0.90989965   0.25322992
H    2.83607888  -2.18119907  -0.06489997
H    5.40557814   1.39899945   0.06101998
H    2.86897898   2.13971925  -0.10536996

