%chk=mol_2085.chk
# wB97XD/Def2SVP opt freq pop=full gfinput

C 5 H 10 N 2

1 2
N    1.00713956  -0.13801995  -0.16572994
C    2.46408892  -0.02596999  -0.05739998
C    2.97738886   1.43281937   0.00000000
C    2.41751909   2.17056918   1.24047959
N    2.79980898   3.59099865   1.29512954
C    4.42138815   1.43281937   0.00000000
C    5.61154795   1.43281937   0.00000000
H    0.75228971  -1.12099957  -0.26369992
H    0.69288975   0.32176989  -1.02108955
H    2.91066885  -0.54058981  -0.91761965
H    2.78684878  -0.57248980   0.83778971
H    2.62247896   1.95446920  -0.89941967
H    2.76510906   1.68212938   2.15929937
H    1.32322955   2.12777925   1.24347949
H    3.81764865   3.66012859   1.31346953
H    2.47211909   3.98685837   2.17581916
H    6.67745733   1.43535948  -0.00397000

