%chk=mol_1535.chk
# wB97XD/Def2SVP opt freq pop=full gfinput

C 5 H 14 N 2

1 2
C    0.83986974  -0.35634989  -0.27501991
C    2.33855915  -0.65300977  -0.35281986
N    2.64381886  -1.30461943  -1.62909949
C    3.15217900   0.64237976  -0.19667993
C    4.67628813   0.45747983  -0.22518991
C    5.23702765  -0.46809983   0.85631973
N    4.92745829   0.01607999   2.19752932
H    0.58774978   0.10263996   0.68686974
H    0.25230992  -1.27644944  -0.36642987
H    0.52253979   0.32857987  -1.06884956
H    2.58646917  -1.34668958   0.45763984
H    2.38784909  -0.68510973  -2.39722896
H    2.06118917  -2.13446903  -1.73324931
H    2.86720872   1.13484967   0.74145973
H    2.88100886   1.34370947  -0.99701959
H    5.14380789   1.44589949  -0.12825994
H    4.98274803   0.07538997  -1.20683944
H    6.32581758  -0.52776980   0.74422973
H    4.85006809  -1.48499954   0.73685968
H    5.33649778   0.94035965   2.32591915
H    5.37521791  -0.59055978   2.88259912

