%chk=mol_4743.chk
# wB97XD/Def2SVP opt pop=full gfinput

C 5 H 9 N 1 O 1

1 2
C    3.188308  -1.086517  -2.032854
C    5.526353  -0.976648  -0.374015
N    6.256524   1.603433   0.173137
C    7.746876   2.967645  -1.455996
O    8.635821   2.137942  -3.424599
C    8.176939   5.601262  -0.586552
C    9.565038   7.199951  -1.973101
H    2.650152  -3.050207  -2.389049
H    3.520257  -0.164368  -3.854361
H    1.594967  -0.130127  -1.124028
H    7.100268  -1.952654  -1.298847
H    5.161201  -1.907338   1.437250
H    5.500143   2.445306   1.709144
H    7.353095   6.202251   1.184896
H   10.406628   6.618501  -3.754678
H    9.891507   9.125355  -1.352798

