%chk=mol_6316.chk
# wB97XD/Def2SVP opt freq pop=full gfinput

C 4 H 7 N 1 O 2

1 2
O    2.36470914  -1.01061964  -1.15532959
C    2.12949920   0.22192992  -0.64678973
O    1.28819954   0.97552961  -1.11460960
C    2.94252896   0.53502977   0.58751976
C    4.38536835   0.13158995   0.47801980
C    5.05150843  -0.61475974   1.60393941
N    4.71678829  -1.29131949   0.34923989
H    3.07620883  -1.47483957  -0.65120977
H    2.44950891   0.04864999   1.43730938
H    2.89901900   1.61688936   0.75794977
H    4.97045803   0.81678969  -0.12564996
H    4.46682835  -0.90483963   2.46865916
H    6.10247755  -0.43426982   1.79583931
H    5.57365799  -1.42518938  -0.20087992

