%chk=mol_2068.chk
# wB97XD/Def2SVP opt pop=full gfinput

C 5 H 14 N 2

1 2
N    1.530735   2.221373   2.759340
C    3.930007   1.707500   1.503655
C    5.527241   4.107868   1.377554
C    8.046303   3.619506   0.043974
C    9.651795   6.022217  -0.082373
C   12.166530   5.532495  -1.414177
N   13.670392   7.838509  -1.492449
H    0.535057   0.581412   2.933479
H    1.857809   2.846589   4.552407
H    3.552175   0.999741  -0.404439
H    4.941369   0.225671   2.537619
H    5.888216   4.813548   3.292961
H    4.488062   5.589640   0.366834
H    7.692962   2.920005  -1.875289
H    9.091000   2.139472   1.051651
H    9.999713   6.720887   1.839440
H    8.599974   7.500739  -1.087027
H   11.835374   4.862152  -3.343681
H   13.229463   4.067938  -0.410278
H   12.715892   9.204213  -2.458893
H   15.291059   7.512115  -2.480247

