%chk=mol_7024.chk
# wB97XD/Def2SVP opt pop=full gfinput

C 6 H 9 N 1

1 2
C    1.889726   0.000000   0.000000
C    4.618491   0.000000   0.000000
C    6.867567   0.000000   0.000000
C    9.573995   0.072811   0.058071
C   11.040120  -1.409679  -1.894923
N   10.884086   1.334619  -2.026070
C   13.204537   2.606405  -1.253077
H    1.145117   1.929146   0.021996
H    1.145023  -0.983678   1.659633
H    1.145193  -0.945468  -1.681762
H   10.402356   0.219397   1.929259
H   10.006289  -2.424330  -3.341546
H   12.812985  -2.266084  -1.337888
H   12.804312   4.604601  -0.893557
H   14.596849   2.514243  -2.780694
H   14.084507   1.824436   0.452268

