%chk=mol_2911.chk
# wB97XD/Def2SVP opt freq pop=full gfinput

C 6 H 10 O 1

1 2
C    1.75313938   0.34117988  -2.63927913
C    2.95690870   0.36699986  -1.75465941
C    3.25925875   1.38196945  -0.92589968
C    4.44322872   1.47640944   0.00207000
O    5.27275801   0.32973987  -0.12244995
C    5.32747793   2.67600918  -0.21137992
C    5.24035788   3.62423873  -1.15624964
H    1.11400962  -0.50668979  -2.37481928
H    2.06186938   0.22720993  -3.68318868
H    1.15888965   1.25675952  -2.55821919
H    3.59727859  -0.51110983  -1.79837930
H    2.57943892   2.23119903  -0.87734967
H    4.06826878   1.50061941   1.03136957
H    5.66274786   0.38111985  -1.01128960
H    6.13934755   2.75844908   0.51103979
H    4.46836805   3.61917877  -1.91883934
H    5.95858765   4.43839836  -1.18674946

