%chk=mol_3761.chk
# wB97XD/Def2SVP opt freq pop=full gfinput

C 5 H 8 O 2

1 2
O    0.98258960  -0.00669000   0.15610994
C    2.39338899   0.01521999  -0.04569998
C    2.71462893  -0.66543972  -1.36817944
C    2.37980914  -2.12686920  -1.26206946
O    3.20277882  -3.02009892  -1.45141947
C    2.80785894   1.45723939  -0.05977998
C    3.68029857   2.00690913   0.79528970
H    0.80652970   0.52067983   0.95633966
H    2.85642910  -0.52685976   0.78762972
H    3.77677846  -0.56772977  -1.61802948
H    2.11845922  -0.25554991  -2.19120908
H    1.32586944  -2.36692905  -1.03702962
H    2.35258913   2.08757925  -0.82215971
H    4.16547823   1.42785943   1.57501948
H    3.93168855   3.06180906   0.72706974

