%chk=mol_5774.chk
# wB97XD/Def2SVP opt freq pop=full gfinput

C 4 H 6 N 2 O 1

1 2
N    1.04027963  -0.01395999   0.33774987
C    2.46999907   0.00000000   0.00000000
C    2.65274906  -0.72151971  -1.32834947
N    3.40116882  -0.28168991  -2.29382920
O    3.37817860  -1.20497954  -3.34604883
C    2.95201898   1.36116946   0.00000000
C    3.34929872   2.48306894   0.00000000
H    0.90674967   0.52411979   1.19298959
H    0.75158972  -0.96545964   0.55361974
H    3.00278902  -0.58974975   0.75456971
H    2.14923906  -1.70142937  -1.42041945
H    3.91418862  -0.75629973  -4.02689838
H    3.70256853   3.48797870  -0.01519999

