%chk=mol_2363.chk
# wB97XD/Def2SVP opt pop=full gfinput

C 5 H 6 O 2

1 2
C    1.995702   0.106222  -0.037492
C    4.796087  -0.085321  -0.148929
C    6.203158  -2.158048  -0.030273
C    8.890425  -1.432639  -0.227788
C    8.623482   1.398756  -0.484753
O   10.403151   2.860894  -0.719457
O    6.138360   2.161809  -0.423809
H    1.108362  -1.760771   0.045448
H    1.274507   1.081377  -1.712697
H    1.415499   1.169022   1.638600
H    5.516281  -4.068202   0.177294
H    9.934536  -1.904750   1.488764
H    9.771453  -2.229858  -1.915237

