%chk=mol_0860.chk
# wB97XD/Def2SVP opt pop=full gfinput

C 5 H 8 O 1

1 2
O    1.934702  -0.051098   0.080597
C    4.637539  -0.013776  -0.010186
C    5.573464  -2.323248  -1.493885
C    6.128363  -1.259238  -4.056184
C    6.129572   1.267005  -4.048096
C    5.577848   2.307771  -1.478730
H    1.384054   1.534420   0.825754
H    5.317954  -0.028384   1.943375
H    4.148270  -3.817209  -1.599181
H    7.317303  -3.085053  -0.681435
H    6.514377  -2.418887  -5.693046
H    6.520236   2.433230  -5.679251
H    7.322935   3.059164  -0.659061
H    4.157738   3.807061  -1.573575

