%chk=mol_1498.chk
# wB97XD/Def2SVP opt freq pop=full gfinput

C 7 H 10

1 2
C    0.89983964  -0.04903998   0.09806997
C    2.42985916   0.00189000   0.08594996
C    2.92309904   1.32973945  -0.54930979
C    3.91241837   1.19149947  -1.67285931
C    4.32454872   0.00559000  -2.13902926
C    3.84585857  -1.22998953  -1.57861948
C    2.97934890  -1.25022948  -0.55742979
H    0.48715982   0.81892967   0.62416977
H    0.53822976  -0.94823962   0.60994977
H    0.49228981  -0.05477998  -0.91940963
H    2.76239896  -0.00738000   1.13273966
H    3.38933873   1.93733919   0.23744991
H    2.07438922   1.91897929  -0.91961962
H    4.29436827   2.10571933  -2.11805916
H    5.03808832  -0.05205998  -2.95573902
H    4.22024822  -2.15671921  -2.00605917
H    2.65908909  -2.20721936  -0.15214995

