%chk=mol_3734.chk
# wB97XD/Def2SVP opt pop=full gfinput

C 6 H 10 O 1

1 2
O    2.211811   1.845658   2.051997
C    4.863569   2.216932   2.326347
C    6.100849   2.235338  -0.281928
C    8.928276   2.659638  -0.160438
C   10.518933   0.681832  -0.294287
C    9.957553   5.203153   0.040232
C    8.643191   7.362940   0.148400
H    1.501425   1.811265   3.746458
H    5.616606   0.674500   3.482217
H    5.166247   4.001741   3.325238
H    5.187393   3.638611  -1.505431
H    5.686110   0.425396  -1.213015
H    9.818129  -1.239755  -0.465591
H   12.557174   0.907711  -0.236726
H   12.011477   5.353726   0.094127
H    6.596335   7.437565   0.094600
H    9.626095   9.160108   0.281097

