%chk=mol_0796.chk
# wB97XD/Def2SVP opt pop=full gfinput

C 4 H 10 O 2

1 2
C    2.324306  -1.564410   0.747765
C    4.888079  -0.421692   0.115065
O    6.003981  -1.815006  -1.912271
C    4.667775   2.370831  -0.619339
C    7.236290   3.563419  -1.172632
O    8.344332   2.488713  -3.371026
H    1.446453  -0.594376   2.348022
H    2.526110  -3.569220   1.218401
H    1.042524  -1.459568  -0.873734
H    6.141289  -0.617317   1.752797
H    4.765190  -1.901613  -3.274744
H    3.745739   3.421406   0.907673
H    3.492346   2.531874  -2.318864
H    8.539824   3.317206   0.414927
H    7.014928   5.591284  -1.510855
H    8.342139   0.654488  -3.110395

