%chk=mol_3913.chk
# wB97XD/Def2SVP opt freq pop=full gfinput

C 5 H 9 N 1 O 1

1 2
C    0.97495961  -0.02745999   0.08097997
C    2.48331904   0.08369996  -0.00587000
C    3.16154861   1.09047961   0.94148964
C    4.17375851  -0.03292999   1.23254955
N    3.16736865  -1.00897956   0.72498971
C    5.51404762  -0.04821998   0.42720985
O    5.65381813  -0.21397991  -0.78535974
H    0.61348981  -0.88248968  -0.50027978
H    0.50237983   0.87307966  -0.32487988
H    0.62992978  -0.14918995   1.11377954
H    2.82446885   0.18146993  -1.04514956
H    2.56542897   1.38267946   1.81424928
H    3.56013870   1.99125934   0.46661982
H    4.36996794  -0.15542994   2.30502915
H    3.55892849  -1.71749938   0.10019996
H    6.41040754   0.09128997   1.05511963

