%chk=mol_0141.chk
# wB97XD/Def2SVP opt pop=full gfinput

C 4 H 5 N 1

1 2
N   -2.140209  -0.000208   0.001020
C   -0.642223   2.113035   0.000416
C    1.841274   1.337643  -0.000265
C    1.841330  -1.337964  -0.000076
C   -0.642450  -2.113583   0.000718
H   -4.052726  -0.000265   0.001587
H   -1.470547   3.981143   0.000529
H    3.477210   2.564755  -0.000831
H    3.477380  -2.565511  -0.000454
H   -1.470604  -3.981918   0.001115

