%chk=mol_6347.chk
# wB97XD/Def2SVP opt freq pop=full gfinput

C 5 H 8 N 2

1 2
C    0.95546967  -0.03214999   0.11772995
C    2.46746922   0.04687998  -0.03295999
C    3.16753888   1.10456967   0.85821968
C    4.16140842  -0.01268000   1.21105957
N    3.14787889  -1.00121963   0.78914970
C    2.88430882   0.03469999  -1.43311942
N    3.23275876   0.01527999  -2.53961897
H    0.65299976  -0.06220998   1.17119956
H    0.55030984  -0.92881966  -0.36607987
H    0.47105983   0.84105968  -0.33441988
H    2.57379913   1.45035946   1.71347940
H    3.59581852   1.97715926   0.35611987
H    5.06794834  -0.01892999   0.59465975
H    4.44927835  -0.07309997   2.26399899
H    3.52228880  -1.78980935   0.26033992

