%chk=mol_0310.chk
# wB97XD/Def2SVP opt pop=full gfinput

C 5 H 7 N 1

1 2
C    1.882980  -0.145339   0.101894
C    4.148912  -0.024415   0.057145
C    6.868966   0.123947  -0.009335
C    8.120739   2.101961   1.731858
C   10.007649  -0.026267   2.331960
N    8.003028  -1.846867   1.633479
H   -0.126196  -0.261935   0.154485
H    7.651841   0.123834  -1.931073
H    6.987905   2.702989   3.361086
H    8.909492   3.768926   0.801187
H   11.657267  -0.079198   1.079582
H   10.640897  -0.138687   4.294743
H    8.603507  -3.411182   0.692018

