%chk=mol_3195.chk
# wB97XD/Def2SVP opt freq pop=full gfinput

C 6 H 10 O 1

1 2
C    0.95603961  -0.09303996   0.10462996
C    2.47905898  -0.01723999   0.03943998
O    2.87945890  -0.74363971  -1.13008952
C    3.02738905   1.43281937   0.00000000
C    2.51841927   2.28463912   1.16642952
C    4.47138834   1.43281937   0.00000000
C    5.66154814   1.43281937   0.00000000
H    0.56727982   0.29932988   1.04889965
H    0.62107980  -1.13219953   0.00661000
H    0.50220978   0.46243984  -0.72284973
H    2.89448881  -0.55578983   0.90056962
H    2.70153904  -0.18836993  -1.90750933
H    2.69083881   1.90279925  -0.93377966
H    2.75065899   1.81945932   2.13095927
H    1.43600953   2.43344903   1.10940957
H    2.98098874   3.27861881   1.15890956
H    6.72722769   1.42458951  -0.00159000

