%chk=mol_1107.chk
# wB97XD/Def2SVP opt pop=full gfinput

C 4 H 3 N 1 O 1

1 2
O    1.803744  -0.062437   0.007937
C    4.105071  -0.121774  -0.000643
C    5.708863   2.153400  -0.002079
C    8.114994   1.411247  -0.012397
C    7.923792  -1.326852  -0.017083
N    5.649903  -2.202816  -0.010431
H    4.948833   4.037343   0.004422
H    9.818431   2.514016  -0.016516
H    9.649414  -2.483346  -0.025719

