%chk=mol_6610.chk
# wB97XD/Def2SVP opt freq pop=full gfinput

C 3 H 5 N 1 O 2 S 1

1 2
C    0.98294961  -0.03472999   0.12019995
N    2.40021920   0.10575996  -0.24074991
S    2.98229885   1.67807937  -0.14323995
O    2.74466896   2.35842896  -1.39019954
O    2.79403877   2.24064922   1.16797960
C    4.76148844   1.62367940  -0.18663992
C    5.96380806   1.58094931  -0.21685992
H    0.70077974  -1.08814955   0.03359999
H    0.35245988   0.54063982  -0.56342977
H    0.80877966   0.28078991   1.15212953
H    2.60032892  -0.26840991  -1.16949952
H    7.02699709   1.55249941  -0.23867990

