%chk=mol_6351.chk
# wB97XD/Def2SVP opt freq pop=full gfinput

C 4 H 7 N 1 O 2

1 2
O    0.79429972   1.82112932  -0.02500999
N    2.02539921   1.62005949  -0.66272974
C    2.92673874   1.39041948   0.23800991
C    4.40126848   1.13692963  -0.15691994
C    5.13468790   2.21825933  -0.95902961
C    6.16959763   2.16667914   0.15653995
O    5.33562803   1.29583955   0.95333964
H    0.19207993   1.98405921  -0.77562970
H    2.68834877   1.37586951   1.31609952
H    4.52210808   0.13365994  -0.58733982
H    4.61122799   3.17453861  -1.04433966
H    5.49376774   1.90339935  -1.94203925
H    7.11619711   1.68355930  -0.10201997
H    6.36049747   3.11804891   0.66046977

