%chk=mol_6083.chk
# wB97XD/Def2SVP opt freq pop=full gfinput

C 4 H 6 N 2 O 1

1 2
O    0.93021965  -0.02809999   0.00778000
C    2.15720916  -0.02168999   0.00373000
N    2.86160874   1.14100957   0.00293000
C    4.29896832   1.24800944  -0.03466999
C    4.95429802  -0.09014996  -0.00994000
C    4.25005817  -1.22466958   0.00635000
N    2.88792896  -1.17345965   0.00509000
H    2.29620910   1.97798932  -0.00226000
H    4.60910797   1.84436929   0.82875967
H    4.56833839   1.79066932  -0.94591963
H    6.03859806  -0.12365995  -0.01008000
H    4.70817852  -2.20681906   0.01930999
H    2.34330916  -2.02700925   0.01282000

