%chk=mol_1717.chk
# wB97XD/Def2SVP opt pop=full gfinput

C 5 H 12 N 2

1 2
C    1.840801   1.997781   0.937002
N    4.559758   1.835264   1.331066
C    5.927258   2.936219  -0.821445
C    8.758900   2.770773  -0.272536
N    9.550014   3.573850   2.293372
C   10.275442   0.703545  -1.541015
C   10.552892   3.387032  -2.406321
H    0.859145   1.210389   2.575810
H    1.251490   0.929462  -0.734310
H    1.230571   3.964154   0.732533
H    5.072762  -0.017008   1.487989
H    5.417127   4.932714  -1.047400
H    5.457567   1.940068  -2.574979
H   10.604651   2.199887   3.129594
H    7.937624   3.663102   3.368437
H    9.309604  -0.604448  -2.785116
H   11.852835  -0.131752  -0.536399
H   12.288001   4.377229  -1.948875
H    9.766577   3.902889  -4.224747

