%chk=mol_5651.chk
# wB97XD/Def2SVP opt pop=full gfinput

C 5 H 9 N 1 O 1

1 2
N    4.195154  -0.805609  -2.826161
C    4.535248   0.125761  -0.243831
C    6.318885   2.406075  -0.134322
C    6.711665   3.341848   2.583596
O    6.714518   6.071917   2.562733
C    5.658520   6.660907   0.256984
C    5.346527   4.753077  -1.338210
H    3.078836  -2.375065  -2.800177
H    5.891523  -1.354971  -3.554254
H    5.296619  -1.407544   0.922130
H    2.675947   0.620529   0.524550
H    8.147460   1.915464  -0.982147
H    8.516258   2.682485   3.354736
H    5.203304   2.721470   3.864017
H    5.259750   8.637409  -0.029725
H    4.607058   4.880615  -3.236647

