%chk=mol_2215.chk
# wB97XD/Def2SVP opt pop=full gfinput

C 6 H 8 O 1

1 2
C    0.475946   2.632596   1.457659
O    2.275400   0.885563   0.283591
C    0.762788  -0.600404  -1.452840
C   -1.174899   1.304572  -2.392809
C   -2.070951   1.888347   0.277317
C   -2.673755  -0.763449   1.167662
C   -0.903327  -2.265800   0.145282
H    1.043375   4.556035   0.949153
H    0.549570   2.403429   3.512226
H    1.888460  -1.554243  -2.891470
H   -0.317474   2.948218  -3.315732
H   -2.632237   0.491726  -3.621433
H   -3.608224   3.245869   0.459128
H   -4.122211  -1.297486   2.499881
H   -0.636857  -4.259556   0.470277

