%chk=mol_3929.chk
# wB97XD/Def2SVP opt freq pop=full gfinput

C 5 H 7 N 1 O 1

1 2
C    0.89786965  -0.00500000  -0.00291000
C    2.38290930   0.00987000  -0.00342000
C    3.20379877   1.12122953  -0.00224000
O    2.88594890   2.41018891  -0.00026000
N    4.50536823   0.68522978  -0.00350000
C    4.53442812  -0.68437970  -0.00555000
C    3.23359895  -1.13178957  -0.00560000
H    0.48345983   1.00795960   0.01090000
H    0.52302980  -0.53588980   0.87806964
H    0.52245981  -0.51227981  -0.89744967
H    3.69346857   2.94891906   0.00040000
H    5.32393789   1.27597952  -0.00307000
H    5.47366810  -1.22064960  -0.00685000
H    2.92315912  -2.16900921  -0.00704000

