%chk=mol_6585.chk
# wB97XD/Def2SVP opt freq pop=full gfinput

C 4 H 8 N 2 S 1

1 2
C    1.09406960  -0.01193000   0.19792992
N    2.49116921  -0.00706000  -0.18520993
C    3.25038886   1.22954953  -0.19821993
C    4.61783838   0.80442971  -0.71728969
N    4.63415861  -0.61600977  -0.49186981
C    3.35224891  -1.10054958  -0.27100989
S    3.01817894  -2.71639895  -0.15620995
H    0.65567976  -1.00765955   0.10455997
H    0.55018979   0.68232971  -0.44973981
H    1.01453960   0.31838989   1.23782957
H    3.31525874   1.60080945   0.83077967
H    2.77053905   1.97764933  -0.83408970
H    4.70817852   0.97369963  -1.79492927
H    5.44827795   1.28650951  -0.19663993
H    5.40003777  -1.24138951  -0.70959973

