%chk=mol_1843.chk
# wB97XD/Def2SVP opt pop=full gfinput

C 7 H 10

1 2
C    4.659309  -1.137918  -2.570500
C    4.413663   0.157717  -0.016252
C    5.513257   2.751196  -0.014249
C    4.292683   4.957810   0.298520
C    6.088660   7.003778   0.225293
C    8.416802   6.069026  -0.117465
C    8.301718   3.240294  -0.309953
H    3.766054  -3.004570  -2.511673
H    6.643691  -1.405522  -3.096902
H    3.737954  -0.036396  -4.062911
H    5.351043  -0.985076   1.433490
H    2.408248   0.237973   0.497924
H    2.286644   5.209162   0.577217
H    5.591756   8.973063   0.427532
H   10.131313   7.167335  -0.242886
H    8.999896   2.604458  -2.148392
H    9.390087   2.350763   1.205891

