%chk=mol_2125.chk
# wB97XD/Def2SVP opt pop=full gfinput

C 5 H 8 N 2

1 2
N    4.676184  -2.630461   2.116512
C    5.195103  -1.289511  -0.015855
N    4.937514  -2.262456  -2.232485
C    6.131481   1.400230   0.214956
C    9.010214   1.432620   0.218509
C    9.983234   4.025797   0.461055
C   10.782041   6.141969   0.644302
H    4.374924  -1.635728   3.727674
H    3.517064  -4.141127   1.931999
H    4.354779  -4.097172  -2.082478
H    5.382847   2.240289   1.955092
H    5.389802   2.506835  -1.372943
H    9.735510   0.576253  -1.523535
H    9.727308   0.276637   1.782446
H   11.492766   8.020394   0.791965

