%chk=mol_4086.chk
# wB97XD/Def2SVP opt pop=full gfinput

C 5 H 11 N 1 O 1

1 2
C    1.482263  -1.053107  -0.708288
C    4.229321  -1.135461  -1.319955
N    5.179399   0.094505  -3.607790
C    5.812609   1.236240  -1.168134
C    8.467561   1.173123  -0.151348
C   10.280866  -0.639257  -1.474213
O   10.667108   0.114253  -4.027120
H    1.212373  -1.123026   1.341895
H    0.516292  -2.683260  -1.538521
H    0.566634   0.664541  -1.415084
H    5.080472  -2.932307  -0.835278
H    3.778621   1.093887  -4.488515
H    4.869163   2.996028  -0.705340
H    8.384167   0.702619   1.864574
H    9.234147   3.093274  -0.299673
H    9.592042  -2.587715  -1.458547
H   12.119362  -0.607471  -0.529823
H    8.972684   0.115179  -4.778834

