%chk=mol_6136.chk
# wB97XD/Def2SVP opt freq pop=full gfinput

C 6 H 13 N 1

1 2
C    0.97352964  -0.00131000   0.03288999
C    2.50293922   0.00595000  -0.00375000
C    2.97345901   0.12826996  -1.46407950
C    3.08342862   1.13373959   0.85023969
C    4.46927834   0.62512976   1.20197964
N    4.30814838  -0.81695968   1.37962949
C    3.10133886  -1.24242949   0.65989977
H    0.59822977  -0.08419997   1.05897951
H    0.57047981  -0.84616965  -0.53638977
H    0.56543976   0.92110968  -0.39512983
H    4.06478834   0.10484996  -1.55230939
H    2.62391901   1.06586957  -1.91098928
H    2.58006907  -0.69595969  -2.07019925
H    2.49704885   1.27018952   1.76844943
H    3.11826897   2.09546924   0.32750988
H    5.17347813   0.82716972   0.38738987
H    4.85852861   1.09586966   2.10938907
H    5.12923813  -1.31102943   1.03409958
H    3.33823872  -2.02527928  -0.07010997
H    2.40981913  -1.67820942   1.39071941

