%chk=mol_5578.chk
# wB97XD/Def2SVP opt freq pop=full gfinput

C 5 H 9 N 1 O 1

1 2
N    1.05534959   0.03591999   0.60700977
C    2.41935921   0.00092000   0.06118998
C    2.70931911   1.19245946  -0.86650968
O    4.05258846   1.18485951  -1.37516952
C    4.48123837  -0.03574999  -1.82165933
C    3.88110876  -1.20603955  -1.57548940
C    2.66637897  -1.30719948  -0.70986974
H    0.93294966   0.88000971   1.16596949
H    0.92327964  -0.74979967   1.24312949
H    3.12711883   0.04032998   0.89967966
H    2.58081889   2.13362908  -0.32016990
H    2.01531911   1.21463954  -1.71705937
H    5.39277792   0.06241998  -2.39877915
H    4.28995848  -2.12205935  -1.99481928
H    1.80790937  -1.55467939  -1.34783959
H    2.78969908  -2.13119912   0.00178000

