%chk=mol_6339.chk
# wB97XD/Def2SVP opt pop=full gfinput

C 4 H 5 N 1 O 2

1 2
O    1.943073   0.443273   0.583585
N    4.454916   0.078726  -0.178560
C    5.592286   2.232504  -0.461566
C    8.314474   2.420720  -1.273562
C    8.584157   5.196180  -1.287111
C    6.397214   6.203064  -0.602275
O    4.468182   4.536004  -0.062455
H    1.310714  -1.281253   0.720118
H    8.571363   1.600201  -3.150098
H    9.550600   1.520927   0.113232
H   10.277238   6.224361  -1.772525
H    5.900084   8.168057  -0.404005

