%chk=mol_2394.chk
# wB97XD/Def2SVP opt pop=full gfinput

C 5 H 8 O 2

1 2
C    1.719896  -0.026532   0.287352
C    4.551443   0.100836  -0.089384
C    5.998199   2.059631   1.552108
C    7.943974   0.040516   2.393300
O   10.418684   0.201747   1.252548
C    6.120256  -1.960459   1.236259
O    6.021499  -4.250164   1.265134
H    0.924171  -1.653813  -0.713391
H    0.811543   1.677869  -0.458126
H    1.216814  -0.196720   2.288080
H    5.045304   0.230036  -2.099694
H    4.907506   2.845021   3.129368
H    6.790977   3.640595   0.477666
H    8.119416  -0.112533   4.449568
H   10.232867  -0.449641  -0.458825

