%chk=mol_4397.chk
# wB97XD/Def2SVP opt freq pop=full gfinput

C 5 H 7 N 1 O 1

1 2
C    1.00985956  -0.26610991  -0.12977995
C    2.48877907  -0.04030998  -0.11116996
C    3.13901877   1.13798952   0.00000000
C    2.45743895   2.47623897   0.07069997
O    2.21550918   2.83003902   1.42565954
C    4.54501867   1.13798952   0.00000000
N    5.69602823   1.13798952   0.00000000
H    0.74418974  -1.00671959   0.63122976
H    0.70624971  -0.65606976  -1.10585952
H    0.43087986   0.63690978   0.07616997
H    3.07731867  -0.95732969  -0.18564993
H    1.50503945   2.48829913  -0.46834981
H    3.07646894   3.25971866  -0.38089985
H    1.72791934   2.09780908   1.84009933

