%chk=mol_6523.chk
# wB97XD/Def2SVP opt pop=full gfinput

C 5 H 3 N 1 S 1

1 2
C    1.816386  -0.074247  -0.004743
C    4.083055   0.027174  -0.000416
C    6.773950   0.150347   0.005159
C    8.167642   2.348873   0.000643
S   11.328625   1.619382   0.011244
C   10.556274  -1.533551   0.020655
N    8.129678  -2.072444   0.016441
H   -0.192317  -0.179203  -0.008145
H    7.510395   4.281099  -0.007842
H   11.997248  -2.984633   0.029631

