%chk=mol_3330.chk
# wB97XD/Def2SVP opt freq pop=full gfinput

C 5 H 10 O 2

1 2
C    1.93620932  -0.28447992  -1.42485952
O    2.21938920   0.16438994  -0.10676996
C    2.97905898   1.36409950  -0.08158997
C    2.19116926   2.59503913  -0.47086981
C    2.98807883   3.69993854   0.18688993
O    3.57660866   3.14764881   1.37214947
C    3.39026880   1.72387934   1.33902955
H    1.40051949  -1.23537958  -1.35499942
H    2.86272883  -0.44801983  -1.98385930
H    1.29855955   0.43151984  -1.95132923
H    3.87691855   1.26512957  -0.70562977
H    1.17714953   2.54571915  -0.05487998
H    2.09464931   2.73083901  -1.55194938
H    3.80224848   4.04039860  -0.46184984
H    2.36944914   4.56267786   0.45013982
H    4.31775808   1.22545946   1.63779938
H    2.61747909   1.45706952   2.06916928

