%chk=mol_0562.chk
# wB97XD/Def2SVP opt freq pop=full gfinput

C 4 H 4 N 2

1 2
N    0.99999964   0.00000000   0.00000000
C    2.15100908   0.00000000   0.00000000
C    3.59500861   0.00000000   0.00000000
C    4.13088846   1.42651951   0.01045000
C    5.59714794   1.42141950   0.01031000
N    6.75647736   1.39861941   0.01005000
H    3.96820855  -0.53461981  -0.88230968
H    3.96821856  -0.54749978   0.87437969
H    3.76563859   1.96348917   0.89458966
H    3.76551843   1.97643924  -0.86562967

