%chk=mol_5580.chk
# wB97XD/Def2SVP opt pop=full gfinput

C 5 H 9 N 1 O 1

1 2
N    1.754913  -0.135663  -0.168979
C    4.484112  -0.050153   0.259346
C    5.737530   2.356148  -0.851529
O    6.054588   2.195200  -3.531577
C    7.728526   0.193905  -4.235878
C    7.142938  -2.245051  -2.912011
C    5.628851  -2.377162  -0.879460
H    0.959282   1.532946   0.354947
H    0.971281  -1.503183   0.929141
H    4.813643  -0.044182   2.304880
H    4.586328   4.029539  -0.445201
H    7.592523   2.679745   0.022242
H    9.678005   0.768646  -3.841171
H    7.546678  -0.064402  -6.280410
H    7.968370  -3.955612  -3.686799
H    5.210977  -4.193586  -0.023452

