%chk=mol_5383.chk
# wB97XD/Def2SVP opt pop=full gfinput

C 5 H 13 N 1 O 1

1 2
C    3.141764  -1.438233  -1.157608
O    5.561955  -0.461320  -0.522094
C    5.552393   2.244484  -0.454952
C    8.225316   3.172019   0.205224
N    8.437911   5.935535   0.518616
C   10.935278   6.566401   1.538199
C    8.044016   7.275597  -1.869544
H    3.246209  -3.501209  -1.133647
H    2.593895  -0.827209  -3.055063
H    1.727134  -0.831801   0.223385
H    4.201504   2.887709   0.977518
H    4.964216   2.951129  -2.311683
H    9.565132   2.473217  -1.216814
H    8.761413   2.239722   1.980036
H   11.221004   5.662999   3.379719
H   11.100024   8.606418   1.853235
H   12.467449   5.975125   0.275276
H    6.112187   7.017385  -2.562110
H    9.361609   6.655559  -3.342226
H    8.284030   9.316293  -1.605190

