%chk=mol_3002.chk
# wB97XD/Def2SVP opt pop=full gfinput

C 5 H 6 O 2

1 2
C    1.889726   0.000000   0.000000
C    4.618491   0.000000   0.000000
C    6.867567   0.000000   0.000000
C    9.596332   0.000000   0.000000
O   10.439187   2.512807   0.557583
C   12.620291   2.670448   1.875799
O   13.953473   0.922772   2.568081
H    1.145117   1.929165   0.022072
H    1.145042  -0.983640   1.659671
H    1.145023  -0.945449  -1.681705
H   10.331643  -0.521016  -1.862476
H   10.289558  -1.372414   1.387305
H   13.042984   4.677318   2.238551

