%chk=mol_5719.chk
# wB97XD/Def2SVP opt pop=full gfinput

C 4 H 8 N 2 O 1

1 2
N    7.119430  -1.766573   1.597253
C    5.255498  -0.391929   0.110473
C    5.844545   2.355808  -0.186062
C    8.040728   3.503042   0.373296
C    8.324886   6.256524  -0.008636
N   10.709929   7.113950   0.401227
O    6.603743   7.665315  -0.634041
H    6.658223  -3.636891   1.587861
H    6.960882  -1.207667   3.435050
H    3.401620  -0.595755   1.010947
H    5.122405  -1.245708  -1.770503
H    4.303833   3.489115  -0.947452
H    9.641270   2.451258   1.093452
H   12.181062   5.985254   0.841665
H   11.029556   8.978977   0.134549

