%chk=mol_2641.chk
# wB97XD/Def2SVP opt pop=full gfinput

C 6 H 8 O 1

1 2
C    1.832675  -0.139934  -0.260763
C    4.587650   0.139481   0.291282
C    5.918301   2.291350   0.176841
C    8.693892   2.605913   0.719154
O    9.251929   5.282125   0.516405
C    6.973071   6.345531  -0.174346
C    5.032983   4.778078  -0.406140
H    1.457281  -2.043796  -0.973436
H    1.183252   1.191416  -1.700338
H    0.726278   0.128917   1.463139
H    5.565470  -1.588428   0.831479
H    9.857058   1.602223  -0.666771
H    9.181933   1.983211   2.630329
H    7.015797   8.360678  -0.438246
H    3.126042   5.294597  -0.905632

