%chk=mol_6193.chk
# wB97XD/Def2SVP opt pop=full gfinput

C 5 H 9 N 1 O 1

1 2
O    3.814450  -1.482415   1.363608
C    5.373285  -0.561702  -0.611383
C    5.779463   2.189021  -0.164255
C    8.057395   3.297156  -0.011565
C    8.503635   5.984592   0.447506
C    8.464065   6.949827   3.124322
N   10.836673   6.651571   1.756576
H    3.704392  -3.301276   1.142642
H    4.402987  -0.854345  -2.412916
H    7.147246  -1.624465  -0.616731
H    4.084057   3.325162   0.068162
H    9.739460   2.132556  -0.232701
H    7.917613   7.252391  -1.053787
H    8.132947   5.625337   4.650276
H    7.825167   8.862627   3.463755
H   11.494259   8.356728   1.139524

