%chk=mol_5474.chk
# wB97XD/Def2SVP opt freq pop=full gfinput

C 5 H 9 N 1 O 1

1 2
N    1.54814947  -0.27843988  -0.51601982
C    2.84946895   0.03449999   0.08790997
C    3.63671875  -1.12003958   0.65600973
C    4.09553862  -0.40418985  -0.58341980
C    5.06454849   0.72142971  -0.50572979
O    4.32243872   1.88102925  -0.08573997
C    3.12429881   1.43451953   0.57889974
H    1.22061956   0.49582982  -1.09746957
H    0.83862972  -0.41516984   0.20536992
H    3.24203897  -2.12351918   0.53614980
H    4.18350840  -0.96988964   1.57837939
H    4.04389858  -0.89129966  -1.54511940
H    5.85496807   0.52773982   0.22699991
H    5.52605820   0.93788964  -1.47234952
H    3.29259872   1.45722950   1.65994930
H    2.32175922   2.13503909   0.33188990

