%chk=mol_5041.chk
# wB97XD/Def2SVP opt freq pop=full gfinput

C 4 H 6 N 2 O 1

1 2
C    3.19186878  -1.09818959   0.40654984
N    2.59081912   0.03114999  -0.26174989
C    3.15735865   1.24431956  -0.15904994
N    2.57138896   2.40955925  -0.31479988
C    3.58212876   3.31518865  -0.11526996
C    4.75041819   2.65374899   0.16187994
O    4.48905849   1.31799948   0.13930994
H    2.60878897  -2.00009918   0.19458993
H    3.20533872  -0.95272964   1.49177945
H    4.21350861  -1.27654958   0.05469998
H    1.57691932   0.04965998  -0.25767991
H    3.41400862   4.38058805  -0.18205994
H    5.76691771   2.94495893   0.37820986

