%chk=mol_6418.chk
# wB97XD/Def2SVP opt freq pop=full gfinput

C 5 H 4 O 1 S 1

1 2
C    2.12174916   0.06084998   0.53038979
O    1.28156948   0.45941985  -0.59645975
C    2.06448913   1.52420938  -0.78996968
C    2.29919910   2.62674904  -1.52625942
S    3.73244858   3.36838865  -0.83492970
C    3.90646839   2.12723899   0.40165988
C    2.90416884   1.24345958   0.23430991
H    2.64146900  -0.89526969   0.40852982
H    1.62171936   0.05375998   1.50458944
H    1.77993929   3.04799891  -2.37410903
H    4.71376801   2.16638923   1.11890960

