%chk=mol_0419.chk
# wB97XD/Def2SVP opt freq pop=full gfinput

C 4 H 8 N 2

1 2
C    0.84889972  -0.38998985   0.09298997
C    2.35420895  -0.20685992   0.07198998
C    2.69347906   1.23556960  -0.17549995
N    3.33102870   1.59157944  -1.24292958
N    3.53244877   2.96733904  -1.25673950
C    4.20049858   3.31625891  -2.30362916
H    0.59404981  -1.43750954   0.27960989
H    0.40429986  -0.09178997  -0.86203969
H    0.38965985   0.21988991   0.87789971
H    2.80317903  -0.83415973  -0.70515972
H    2.78001904  -0.49331981   1.03908956
H    2.37461901   1.96661925   0.58926976
H    4.44677830   4.37633848  -2.46868896
H    4.55009842   2.59636903  -3.06334901

