%chk=mol_1502.chk
# wB97XD/Def2SVP opt pop=full gfinput

C 6 H 7 N 1

1 2
C    1.863005  -0.031710   0.023036
C    4.762110   0.000000   0.000000
N    5.656347  -1.264718   2.290140
C    5.690910  -1.439178  -2.204479
C    6.453415  -2.607368  -3.996752
C    5.672996   2.572238   0.000000
C    6.423746   4.692322   0.000000
H    1.087386   0.881293  -1.670537
H    1.095682   0.976686   1.664716
H    1.118340  -1.966714   0.066991
H    5.119136  -0.225066   3.815565
H    7.580674  -1.234501   2.272093
H    7.133300  -3.645811  -5.582270
H    7.099663   6.589324  -0.010507

