%chk=mol_0542.chk
# wB97XD/Def2SVP opt pop=full gfinput

C 5 H 7 N 1

1 2
N   10.174909  -3.527249  -0.415910
C    8.675128  -1.962745  -0.231435
C    6.793584   0.000000   0.000000
C    8.241436   2.430849   0.214578
C    8.916786   3.951606  -2.102169
C    6.925695   4.905162  -0.314885
H    5.641645  -0.272876   1.696577
H    5.522668   0.012548  -1.633309
H    9.565000   2.426465   1.785829
H    8.314020   3.281736  -3.942403
H   10.729733   4.908847  -2.122578
H    7.393062   6.514245   0.866723
H    4.977803   4.881578  -0.951723

