%chk=mol_5917.chk
# wB97XD/Def2SVP opt pop=full gfinput

C 4 H 8 N 2 O 1

1 2
N    3.905969  -0.680660  -2.826728
N    3.701482   1.089824  -0.851567
C    1.565562   1.044830   0.679035
O   -0.282004  -0.317417   0.360012
C    5.908078   2.543307  -0.274898
C    7.232813   4.103125  -2.258506
C    5.824967   5.389235  -0.164709
H    2.999506   0.086417  -4.349828
H    2.785381  -2.186753  -2.335758
H    1.701245   2.391713   2.263041
H    7.119449   1.597083   1.089616
H    6.430473   4.166544  -4.141373
H    9.279746   4.140428  -2.220901
H    6.919459   6.322192   1.293253
H    4.079994   6.345549  -0.649102

