%chk=mol_4177.chk
# wB97XD/Def2SVP opt pop=full gfinput

C 5 H 11 N 1 O 1

1 2
C    1.733559  -0.394613  -0.173420
C    4.539859  -0.283516  -0.234213
O    5.632895  -0.639332  -2.686794
C    5.885325   1.830691  -1.592850
C    8.535609   2.548655  -0.919030
C    8.597517   4.149744   1.489312
N   11.165409   4.947643   2.092040
H    1.008793   0.830251   1.326701
H    1.106189  -2.326517   0.211952
H    0.892083   0.210138  -1.963255
H    5.428957  -1.183724   1.368029
H    4.802985   3.361407  -2.406925
H    9.353237   3.615084  -2.500221
H    9.708733   0.855989  -0.666960
H    7.827623   3.065892   3.076569
H    7.402964   5.824193   1.257065
H   12.286886   3.402376   2.347191
H   11.164105   5.895794   3.768719

