%chk=mol_2127.chk
# wB97XD/Def2SVP opt pop=full gfinput

C 4 H 7 N 3

1 2
N    5.726324   7.759499  -3.285459
C    4.733140   6.978815  -1.214319
N    5.837421   5.369846   0.458070
C    8.105943   3.940457  -0.172097
C   10.460711   5.607044  -0.120810
C   12.725926   4.068713  -0.539139
N   14.507069   2.823005  -0.838963
H    4.493145   8.957245  -4.184137
H    2.831339   7.597965  -0.618791
H    4.667680   4.517353   1.717175
H    7.882369   3.022296  -2.017566
H    8.306273   2.414314   1.217305
H   10.600721   6.568556   1.709182
H   10.356871   7.088967  -1.562331

