%chk=mol_0663.chk
# wB97XD/Def2SVP opt freq pop=full gfinput

C 5 H 10 O 1

1 2
C    2.69209909  -1.46699941  -0.86914968
C    1.97357929  -0.23674992  -0.33943987
C    2.93631887   0.85050970   0.05893998
C    3.71449852   0.66122979   1.32329941
C    3.44030857   1.81942928  -0.98776966
O    2.38873911   2.17133927  -0.07672997
H    1.96685922  -2.22537923  -1.18056953
H    3.33767867  -1.91065919  -0.10462996
H    3.31751871  -1.21638954  -1.73248947
H    1.35659945  -0.51462978   0.52236980
H    1.28563952   0.12819995  -1.11200964
H    4.27254868   1.56382942   1.59560943
H    4.43581867  -0.15433994   1.21236956
H    3.04552889   0.41924983   2.15545940
H    3.16990876   1.66016936  -2.02423930
H    4.40412807   2.29081917  -0.84497970

