%chk=mol_4920.chk
# wB97XD/Def2SVP opt freq pop=full gfinput

C 5 H 9 N 1 O 1

1 2
C    3.00164890  -1.66295946   1.02642965
C    2.46029925  -0.46126986   0.29961988
O    1.28507948  -0.37853986  -0.04960998
N    3.33719873   0.55807978   0.03490999
C    4.71125841   0.61520982   0.40407985
C    5.76506805  -0.07313997  -0.41782984
C    5.67942762   1.42396951  -0.41638985
H    3.79151869  -2.13561916   0.43781984
H    2.19719911  -2.39000893   1.17165959
H    3.38367867  -1.36924946   2.00723934
H    2.91903901   1.34740949  -0.44436982
H    4.86077833   0.64726973   1.48118937
H    5.46001816  -0.59681976  -1.31662941
H    6.59296751  -0.53657979   0.10597996
H    6.45055771   1.97620928   0.10832996
H    5.32404804   1.90845931  -1.31826949

