%chk=mol_5470.chk
# wB97XD/Def2SVP opt freq pop=full gfinput

C 6 H 13 N 1

1 2
C    1.00727963   0.03604999  -0.04801998
C    2.49403906  -0.07086997  -0.06360997
C    3.19114876  -0.77671969  -1.19673955
C    3.29899883   0.71959972  -1.06585956
N    4.53942823   1.42185938  -0.66465974
C    5.53274775   0.63249981   0.06276998
C    5.17572784   2.07279921  -1.81327927
H    0.69912976   0.90343964   0.54399979
H    0.57077980  -0.85907972   0.40586984
H    0.58965981   0.14475995  -1.05438960
H    2.88690877  -0.19955993   0.93690962
H    2.59265900  -1.16366947  -2.01425934
H    4.03544855  -1.40741944  -0.95115966
H    2.69687891   1.29902947  -1.76795936
H    5.10795784   0.18679993   0.96733963
H    6.35546732   1.27329946   0.40072986
H    5.96000767  -0.16649993  -0.55318981
H    4.47750807   2.76166892  -2.30183911
H    5.51465797   1.34274948  -2.55703902
H    6.03527784   2.67402911  -1.49634945

