%chk=mol_4733.chk
# wB97XD/Def2SVP opt pop=full gfinput

C 5 H 5 N 1 O 1

1 2
C    1.884605  -0.033354   0.014456
C    4.405367  -0.131846   0.014570
N    5.862762   2.005548   0.010942
C    8.468260   1.977768   0.010960
O    9.807981   0.093617   0.014192
C    9.635487   4.452119   0.006652
C   10.604859   6.504683   0.003024
H    0.786882  -1.767140   0.017404
H    0.848827   1.734636   0.011471
H    5.403105  -1.932623   0.017612
H    4.999308   3.712367   0.008050
H   11.491236   8.312849  -0.000227

