%chk=mol_2551.chk
# wB97XD/Def2SVP opt freq pop=full gfinput

C 6 H 6 O 1

1 2
C    0.92371964   0.04874998  -0.00109000
C    2.26031899   0.01375999  -0.00140000
O    2.98162889   1.21073949  -0.00301000
C    4.36158848   1.16278946  -0.00309000
C    5.06546831   0.02383999  -0.00188000
C    4.35382843  -1.22930956  -0.00029000
C    3.01276898  -1.22902954  -0.00027000
H    0.40147984   0.99966967  -0.00196000
H    0.32350987  -0.85368973   0.00000000
H    4.78937817   2.15428925  -0.00474000
H    6.14872789   0.02222999  -0.00202000
H    4.92094803  -2.15340900   0.00047000
H    2.46722889  -2.16712904   0.00065000

