%chk=mol_3646.chk
# wB97XD/Def2SVP opt freq pop=full gfinput

C 6 H 10 O 1

1 2
O    2.54587913  -0.38900986  -1.55083942
C    2.40650892   0.06320997  -0.20653991
C    3.26845860   1.30560946   0.01589999
C    3.30594873   1.72458935   1.49317944
C    3.34049869   3.25339890   1.50201952
C    2.76614881   3.60218883   0.17036994
C    2.72269893   2.54145908  -0.64231974
H    1.95532930  -1.15435946  -1.65511930
H    2.73004889  -0.74811971   0.45402983
H    1.34679949   0.26769990  -0.01768999
H    4.28178835   1.13173950  -0.36736986
H    4.16966820   1.29763949   2.01464915
H    2.40829897   1.37743950   2.02287936
H    4.36306858   3.63416862   1.58753932
H    2.74053907   3.65588856   2.32304907
H    2.46456909   4.60267830  -0.10890996
H    2.38834929   2.56270909  -1.67175937

