%chk=mol_3086.chk
# wB97XD/Def2SVP opt pop=full gfinput

C 6 H 12 O 1

1 2
C    5.342974  -1.382977  -2.696242
C    4.890951  -0.298860  -0.071677
C    5.965676   2.373250   0.290243
O    5.280084   3.159168   2.789236
C    5.274642   5.830561   3.083995
C    8.804763   2.398686   0.095941
C   10.118860   3.696078  -1.634141
H    4.431389  -3.232036  -2.865618
H    7.358745  -1.641832  -3.075000
H    4.555960  -0.145868  -4.154430
H    5.673619  -1.585424   1.355973
H    2.848913  -0.250105   0.293040
H    5.091753   3.636211  -1.104262
H    4.759955   6.262061   5.038388
H    3.871425   6.691917   1.832694
H    7.145470   6.628630   2.714100
H    9.818205   1.283389   1.495416
H    9.191590   4.844237  -3.059278
H   12.170138   3.634094  -1.652244

