%chk=mol_2537.chk
# wB97XD/Def2SVP opt freq pop=full gfinput

C 6 H 12 O 1

1 2
C    0.99897963   0.06302997   0.13929994
C    2.49173927  -0.09932996  -0.05448998
O    3.22836876   0.95488960   0.62567979
C    4.16807842  -0.02216999   1.15756953
C    5.50826788   0.09318996   0.45329982
C    3.19746876  -1.17269957   0.79899967
C    3.70910859  -2.39738917   0.06956998
H    0.46236983  -0.79301971  -0.28187987
H    0.64070976   0.96561962  -0.36589986
H    0.73523974   0.14199996   1.19892955
H    2.76178885  -0.11513995  -1.11830962
H    4.28272820   0.10621995   2.24107909
H    5.40062761   0.06274997  -0.63592976
H    6.17357731  -0.72205973   0.75408971
H    5.99713802   1.03756964   0.71417975
H    2.60587883  -1.47945940   1.67287946
H    4.26707840  -2.13584924  -0.83469969
H    2.87468886  -3.04057884  -0.22850992
H    4.36795855  -2.98345876   0.71820968

