%chk=mol_5198.chk
# wB97XD/Def2SVP opt freq pop=full gfinput

C 5 H 11 N 1 O 1

1 2
C    1.45490956   3.01262879   0.20131993
N    2.80972910   2.58335924   0.43510985
C    3.42714882   1.68246937  -0.40740985
O    2.88981891   1.23678958  -1.41644943
C    4.83380795   1.28649950   0.04030998
C    5.39341831   0.16832994  -0.83756971
C    5.76915741   2.49406910   0.01736999
H    1.28210950   3.93710852   0.75744975
H    0.77483970   2.23405933   0.55760974
H    1.28666949   3.18292880  -0.86583966
H    3.22431898   2.77032900   1.33824944
H    4.75932837   0.90846962   1.06767952
H    5.48941803   0.48950982  -1.88064921
H    4.73567820  -0.70729971  -0.81932968
H    6.38143730  -0.14579995  -0.48604980
H    5.81214762   2.94081903  -0.98249966
H    6.78485775   2.20715928   0.30821988
H    5.43456793   3.27311873   0.71016973

