%chk=mol_5797.chk
# wB97XD/Def2SVP opt freq pop=full gfinput

C 4 H 11 N 1 O 2

1 2
N    0.82084966  -0.13978994  -0.10295996
C    2.28689909  -0.17237993  -0.31032988
C    2.64844894  -1.51646936  -0.97234964
O    1.91861928  -1.66880929  -2.18894911
C    2.66911888   1.04891956  -1.16789961
C    4.16342831   1.15865958  -1.44861948
O    4.89360809   1.21467960  -0.23027991
H    0.57075983   0.72868973   0.37135985
H    0.56084985  -0.88856965   0.54141980
H    2.77912903  -0.10981996   0.66690975
H    2.38013911  -2.35187912  -0.31598991
H    3.71621847  -1.59922934  -1.19013953
H    1.03698969  -1.29040945  -1.99120915
H    2.35403919   1.95662916  -0.63607973
H    2.12966919   1.03563964  -2.12296915
H    4.37911844   2.06569934  -2.02327919
H    4.52932835   0.30949986  -2.03195930
H    4.73327827   2.09060907   0.16235994

