%chk=mol_3100.chk
# wB97XD/Def2SVP opt pop=full gfinput

C 5 H 8 O 2

1 2
C    0.046676   1.754611  -0.564707
C    2.463107   0.436111   0.069939
C    4.676222   0.997322  -1.032187
O    7.002683  -0.052251  -0.638255
C    7.164500  -2.023141   1.186238
C    9.871740  -2.907533   1.210143
O   11.021620  -3.480649   3.144448
H   -1.323375   0.393044  -1.303722
H    0.310784   3.238896  -1.981170
H   -0.749787   2.621485   1.135555
H    2.319299  -1.024515   1.501406
H    4.845447   2.458779  -2.461709
H    5.982930  -3.630391   0.635326
H    6.668503  -1.327797   3.071221
H   10.735005  -3.206657  -0.664654

