%chk=mol_3255.chk
# wB97XD/Def2SVP opt freq pop=full gfinput

C 5 H 8 O 2

1 2
C    1.45579946  -0.12734996   1.33788955
C    2.70223904   0.45431980   0.68820971
O    2.39011908   1.02357960  -0.58483976
C    2.40472913   0.22551991  -1.69090939
C    2.67189884  -1.08073962  -1.79614925
C    3.19047880   1.61127949   1.53360951
O    4.07959843   1.50986946   2.37722921
H    1.67523932  -0.50794983   2.34088922
H    1.04057956  -0.94450969   0.73992968
H    0.66906977   0.63085973   1.42812943
H    3.52069855  -0.27140990   0.62676978
H    2.15323925   0.82237971  -2.56270909
H    2.92492890  -1.71171939  -0.95372963
H    2.64114904  -1.55978930  -2.77050900
H    2.63825917   2.55934906   1.41444945

