%chk=mol_3724.chk
# wB97XD/Def2SVP opt freq pop=full gfinput

C 6 H 10 O 1

1 2
O    0.70800972  -0.08210997  -0.12091996
C    2.12997913  -0.03275999  -0.09876996
C    2.62995887   1.38828945   0.01335999
C    1.82461929   2.45467901   0.17342994
C    4.12900829   1.55902946  -0.10652996
C    4.87002802   0.90077966   1.02328968
C    5.77224779  -0.07661997   0.86655968
H    0.46672982  -1.02221966  -0.14657994
H    2.49645901  -0.48820984  -1.02350962
H    2.47337914  -0.62485975   0.75429970
H    0.74642974   2.34085917   0.24377991
H    2.21436906   3.46508861   0.23524992
H    4.39865828   2.62254906  -0.10960995
H    4.45505810   1.16079950  -1.07569969
H    4.65092850   1.26302946   2.02637935
H    6.03065777  -0.46489981  -0.11403996
H    6.27769756  -0.50809979   1.72538936

