%chk=mol_4963.chk
# wB97XD/Def2SVP opt freq pop=full gfinput

C 4 H 7 N 1 O 2

1 2
C    1.18564963   0.14492995  -0.13767995
N    2.64392900   0.20709991  -0.03670999
C    3.32188892  -0.65978974  -0.99764961
C    3.27251863   0.83313966  -1.22079957
C    4.46264839   1.66957927  -0.91973960
O    4.68545866   1.82283926   0.40806982
O    5.15036821   2.16164923  -1.79731941
H    0.75394970   1.07881963   0.23680991
H    0.81066972  -0.67011970   0.48986983
H    0.80890965  -0.01466999  -1.15543962
H    2.72600913  -1.29664946  -1.64151931
H    4.25724840  -1.09939957  -0.66954976
H    2.62808919   1.21451962  -2.00421929
H    3.99337840   1.30013943   0.87580973

