%chk=mol_2483.chk
# wB97XD/Def2SVP opt freq pop=full gfinput

C 6 H 12 O 1

1 2
C    1.01156962   0.02971999  -0.06925997
C    2.52166891  -0.05244998   0.05666998
C    3.11408877   1.04350960   0.91825962
O    4.40281820   0.55469984   1.30333948
C    4.30855846  -0.87376964   1.43217945
C    5.55147791  -1.50643945   0.83098966
C    3.01296878  -1.30904949   0.75071967
H    0.62791979  -0.79563969  -0.67720973
H    0.71225977   0.97033960  -0.54220980
H    0.52484983  -0.02139999   0.91146964
H    2.97515893  -0.00555000  -0.94196963
H    2.52946901   1.22256958   1.82740939
H    3.22662878   1.98875928   0.37980986
H    4.26636839  -1.11056960   2.50038910
H    5.65485811  -1.24825954  -0.22647990
H    5.52650785  -2.59657907   0.92718965
H    6.44991779  -1.13302958   1.33693945
H    3.14827895  -2.14195919   0.05346998
H    2.29875922  -1.64483941   1.51264942

