%chk=mol_3708.chk
# wB97XD/Def2SVP opt freq pop=full gfinput

C 6 H 4 O 1

1 2
O    2.09149933   0.76986969   0.92986965
C    2.28214908   0.05950998  -0.05020998
C    2.96858907  -1.28344953   0.00000000
C    2.03078914  -2.38147926   0.00000000
C    1.25783956  -3.28647876   0.00000000
C    1.83564937   0.51469982  -1.35280943
C    1.46883941   0.89869970  -2.43044925
H    3.58599877  -1.30658960   0.90557969
H    3.66264868  -1.35625947  -0.84518969
H    0.56396979  -4.09605837   0.00456000
H    1.13848960   1.24892950  -3.38126874

