%chk=mol_5863.chk
# wB97XD/Def2SVP opt freq pop=full gfinput

C 4 H 2 N 2 O 1

1 2
N    1.00933957  -0.00547000  -0.00000000
C    2.36663914  -0.07633997  -0.00000000
O    2.97902894  -1.13273966  -0.00000000
C    3.07114887   1.17637956  -0.00000000
C    3.67247868   2.21570921  -0.00000000
C    4.44022846   3.54093862  -0.00000000
N    5.00896835   4.55208826  -0.00000000
H    0.50569981   0.86933964   0.00000000
H    0.49162981  -0.87349969  -0.00000000

