%chk=mol_4893.chk
# wB97XD/Def2SVP opt freq pop=full gfinput

C 4 H 12 N 2 O 1

1 2
C    0.85012972  -0.19633994  -0.05494998
C    2.35866904   0.04564998  -0.18830994
O    2.98521876  -0.39039987   1.03583968
C    2.97059870  -0.76189971  -1.36212945
N    2.77269888  -2.20957899  -1.22030962
C    2.68369889   1.55231941  -0.37205985
N    2.35435915   2.33370924   0.83166969
H    0.31340986   0.13081995  -0.95094967
H    0.43492985   0.32927987   0.81149966
H    0.63002980  -1.25601947   0.11452996
H    2.90507889   0.38105986   1.63556933
H    4.05187845  -0.58204979  -1.39362943
H    2.54647923  -0.43529984  -2.31751895
H    2.99055886  -2.44293904  -0.24622990
H    3.45986867  -2.70160890  -1.78791928
H    2.15836930   1.96362925  -1.24072957
H    3.75980854   1.67263937  -0.54201978
H    1.33972955   2.38727903   0.93334967
H    2.66249895   3.29714870   0.69147974

