%chk=mol_1799.chk
# wB97XD/Def2SVP opt freq pop=full gfinput

C 5 H 12 N 2

1 2
C    1.08143961  -0.11046996  -0.03564999
N    2.51499915   0.05725998  -0.19845992
C    3.04579878   1.23736954  -0.12153996
C    2.19952917   2.48060918   0.12660995
N    4.42669821   1.38291955  -0.23713991
C    5.25459814   0.19811992  -0.44606984
C    5.12858820   2.56639886   0.23673992
H    0.85804969  -1.17858958   0.05229998
H    0.53721982   0.26509988  -0.90761966
H    0.70864975   0.36930987   0.87497967
H    1.25269961   2.42634892  -0.41589984
H    2.70571899   3.38670874  -0.21230991
H    1.99801922   2.56484914   1.19832945
H    4.82068825  -0.46217981  -1.20486951
H    5.36412811  -0.35945985   0.48984984
H    6.25316763   0.47012982  -0.80528969
H    4.79773808   2.83504891   1.24533951
H    4.94862843   3.41024876  -0.43622985
H    6.21178770   2.41362906   0.28002989

