%chk=mol_6467.chk
# wB97XD/Def2SVP opt freq pop=full gfinput

C 4 H 8 O 2 S 1

1 2
C    0.96623963  -0.00961000   0.02584999
C    2.48294902   0.01636999   0.03521999
C    3.13219881   1.09837961   0.93871969
S    4.47041845  -0.00798000   1.28645945
O    4.75863791  -0.06954997   2.70243907
O    5.49986792   0.05783998   0.26972991
C    3.17092896  -1.12267959   0.83416969
H    0.59942973  -0.86851966  -0.54526979
H    0.56835979   0.89817971  -0.43895984
H    0.55841982  -0.07773998   1.03973961
H    2.85868883   0.07219997  -0.99740964
H    2.56870914   1.35709941   1.84126925
H    3.43721867   2.01291919   0.42381984
H    3.50666881  -1.97380936   0.23619992
H    2.61857891  -1.48447943   1.70741940

