%chk=mol_2159.chk
# wB97XD/Def2SVP opt freq pop=full gfinput

C 5 H 6 O 2

1 2
C    0.56187975   1.23652959   0.66812980
C   -0.85453969   0.76118976   0.43422982
C   -0.82808971   0.00710000  -0.85984969
O    0.56056982   0.01038000  -1.31493950
C    1.21809947   0.00279000  -0.01079000
O    0.57572979  -1.09149957   0.71437973
C   -0.81695968  -0.73242974   0.46197984
H    0.76760972   2.17227912   0.14147994
H    0.79241973   1.30735958   1.73447931
H   -1.69187939   1.34250951   0.76115972
H   -1.67186940  -0.04129998  -1.52652943
H    2.30681920  -0.05829998  -0.05207998
H   -1.65218937  -1.32893956   0.78651971

