%chk=mol_6850.chk
# wB97XD/Def2SVP opt freq pop=full gfinput

C 5 H 10 N 2

1 2
C    0.98351961   0.10402996   0.20240992
C    2.46411896  -0.11181996  -0.08908997
N    2.75677919  -1.49508953  -0.52104980
C    2.76552892  -1.52134943  -1.99345922
C    3.19933891  -0.14441995  -2.38210917
N    2.24807930   0.96028966  -2.46392894
C    2.98066878   0.74400967  -1.21395957
H    0.79335970   1.14915955   0.46817985
H    0.65740973  -0.52363980   1.03821957
H    0.35399988  -0.13579996  -0.66110975
H    3.03867888   0.09251996   0.82186967
H    2.04602909  -2.13368917  -0.17232993
H    3.46281862  -2.28398895  -2.35266900
H    1.76589930  -1.74369931  -2.38412929
H    4.12529850  -0.08828997  -2.93399882
H    2.64949894   1.74284935  -2.98215890
H    3.74386859   1.45438945  -0.93178964

