%chk=mol_6027.chk
# wB97XD/Def2SVP opt freq pop=full gfinput

C 5 H 9 N 1 O 1

1 2
O    1.03830957   0.09266996  -0.26541990
C    2.46313930   0.09455997  -0.02365999
C    2.98366880   1.04511964   1.07918966
N    3.91089869  -0.01814999   1.53442943
C    3.02698874  -1.02182961   0.89717966
C    3.77870870  -2.14728904   0.28731990
C    4.69391823  -2.00413918  -0.68231976
H    0.88869965  -0.69080973  -0.82204968
H    2.99935865   0.23457992  -0.97078967
H    2.23543930   1.32381952   1.83022928
H    3.47666883   1.95381927   0.72233975
H    4.83597803   0.03952999   1.11095953
H    2.27048898  -1.40791953   1.59543931
H    3.56157851  -3.13977885   0.67345977
H    4.96424818  -1.04241967  -1.10337961
H    5.21055841  -2.87480879  -1.07637954

