%chk=mol_5913.chk
# wB97XD/Def2SVP opt freq pop=full gfinput

C 4 H 6 N 2 O 1

1 2
N    0.88640970   0.90562963  -0.67357975
N    2.21025920   0.86812967  -0.94888961
C    2.94863892   1.07655954   0.10103996
C    4.46640825   1.10055959   0.00000000
O    4.91142797   0.43609983  -1.17299962
C    4.94841814   2.46172905   0.00000000
C    5.34570789   3.58362865   0.00000000
H    0.36771986   0.48892984  -1.45300949
H    0.55177975   1.87328923  -0.64187974
H    2.51692915   1.27627957   1.09935963
H    4.85992813   0.55285978   0.86210966
H    4.23034859   0.62801975  -1.84664929
H    5.70998812   4.58525801  -0.00897000

