%chk=mol_4001.chk
# wB97XD/Def2SVP opt freq pop=full gfinput

C 4 H 8 N 2 O 1

1 2
C    0.98992962   0.01402999   0.31534988
C    2.43410897   0.06523997  -0.16374995
C    2.88481903  -1.28804958  -0.72907972
N    4.16895866  -1.21331966  -1.45054948
C    4.50574827  -0.02098999  -1.79718924
N    3.87626839   1.17199957  -1.53460944
O    2.51734900   1.04191959  -1.21616960
H    0.68392974   0.99085963   0.70343977
H    0.85833967  -0.73334974   1.10284960
H    0.31046990  -0.22067991  -0.51148981
H    3.07817888   0.37597987   0.67009974
H    2.13694930  -1.67707932  -1.42969942
H    2.97916889  -2.01397920   0.08735997
H    5.44328785   0.12816995  -2.35901928
H    4.06253815   1.93148935  -2.18439913

