%chk=mol_0942.chk
# wB97XD/Def2SVP opt pop=full gfinput

C 4 H 7 N 1 O 1

1 2
C    1.799548  -0.197269   0.023092
C    4.552936   0.269513  -0.319175
C    6.046916  -1.189488  -2.201437
N    5.388819   1.408942  -2.627324
C    7.214559   3.281415  -2.621182
O    7.242054   5.121970  -4.023435
H    0.863832   1.519245   0.698726
H    1.502918  -1.685900   1.427688
H    0.879138  -0.781232  -1.736299
H    5.464313   0.927326   1.391084
H    5.103659  -2.470968  -3.484844
H    8.026026  -1.558797  -1.847453
H    8.702604   2.967928  -1.193627

