%chk=mol_2358.chk
# wB97XD/Def2SVP opt freq pop=full gfinput

C 6 H 12 O 1

1 2
C    0.93144965   0.00556000   0.07023997
C    2.44576931   0.02740999   0.01932999
C    3.15437865   1.04992962   0.94158959
C    4.23329830  -0.02800999   1.22451961
C    5.49028826   0.01346999   0.36540985
O    6.31585741   1.09317970   0.78768969
C    3.18078876  -1.08590961   0.80566967
H    0.54052979  -0.85038966  -0.48850983
H    0.51886982   0.91566962  -0.37598985
H    0.56267977  -0.06446998   1.09840953
H    2.79633880   0.09790996  -1.02056956
H    2.57923913   1.32743943   1.83297932
H    3.49408865   1.96525931   0.44924983
H    4.50226831  -0.10001996   2.28558898
H    5.26935816   0.13770995  -0.69891977
H    6.06525755  -0.90974963   0.48748979
H    5.83547783   1.91820931   0.60581982
H    3.54630876  -1.92268932   0.20359993
H    2.61342883  -1.48862946   1.65317941

