%chk=mol_4730.chk
# wB97XD/Def2SVP opt freq pop=full gfinput

C 4 H 10 N 2 O 1

1 2
C    1.71522927  -0.53849977  -0.95962965
C    2.74524903  -0.36523986   0.14333995
N    3.78020859   0.55139983  -0.28410989
C    4.78130817   0.97307962   0.52477980
N    5.31183815   0.34677985   1.50912941
O    5.18262815   2.21186924   0.16442993
C    6.22967768   2.79187894   0.95001966
H    0.93009967  -1.23164964  -0.64265978
H    2.17673922  -0.93424964  -1.87030935
H    1.24463964   0.41796982  -1.21121955
H    3.18120885  -1.34070957   0.38449985
H    2.25374913   0.02033999   1.04344964
H    3.45820880   1.30821955  -0.87891966
H    4.87875843  -0.57389975   1.57851934
H    6.44645786   3.78220868   0.53992981
H    7.13932753   2.18663907   0.88825965
H    5.90692806   2.91325879   1.98875928

