%chk=mol_6076.chk
# wB97XD/Def2SVP opt freq pop=full gfinput

C 4 H 6 N 2 O 1

1 2
O    1.39736950   0.18567993   0.78088969
C    2.41825914  -0.07492997   0.16759993
N    2.81603885  -1.30858958  -0.29106990
C    4.04422855  -1.27501953  -1.04993963
C    4.50072813   0.15633994  -0.96917963
N    3.71716857   1.22781956  -1.57917941
C    3.47667861   0.91139966  -0.16383994
H    2.18879914  -2.09868908  -0.23477992
H    4.75782824  -1.95933926  -0.58326977
H    3.84090853  -1.58795941  -2.07780933
H    5.55569792   0.30858988  -0.80366969
H    4.25588799   2.09150934  -1.65288937
H    3.79237866   1.61705935   0.59010977

