%chk=mol_5133.chk
# wB97XD/Def2SVP opt freq pop=full gfinput

C 5 H 9 N 1 O 1

1 2
C    0.89580965   0.20648992  -0.07496998
N    2.30086923  -0.03107999  -0.38312986
C    3.12922883   1.08525956   0.10163996
C    4.59414816   0.85164970  -0.26056990
O    5.22401810   1.65268934  -0.94970965
C    5.24234819  -0.37859985   0.28663990
C    6.54022741  -0.62998980   0.07395997
H    0.29800987  -0.63941979  -0.42759982
H    0.52474982   1.11037958  -0.56893981
H    0.73651975   0.29649991   1.00424957
H    2.40665913  -0.09494997  -1.39816940
H    3.06060886   1.19004965   1.19037950
H    2.81210899   2.02847934  -0.35839987
H    4.61623859  -1.05528963   0.85666966
H    7.16348696   0.04909998  -0.50135982
H    7.00478745  -1.52607942   0.47003984

