%chk=mol_1060.chk
# wB97XD/Def2SVP opt freq pop=full gfinput

C 4 H 11 N 1 O 1

1 2
C    1.09128952   1.63831937   1.37806952
O    2.49386907   1.83147931   1.24393952
C    2.97848892   1.31868947   0.00354000
C    4.48922873   1.51321948  -0.07311997
C    4.87544823   2.99025893  -0.02603999
N    6.32084751   3.14052868  -0.18625993
H    0.77496976   2.06871915   2.33149934
H    0.85145968   0.57092977   1.37893951
H    0.55480975   2.14482903   0.56996977
H    2.48568892   1.83704925  -0.82739967
H    2.74696898   0.24926990  -0.06275998
H    4.85933828   1.05662954  -0.99890965
H    4.96314812   0.99087965   0.76739973
H    4.57175827   3.43954873   0.92562968
H    4.37227869   3.53804874  -0.82996970
H    6.79386711   2.66438890   0.58160979
H    6.56344748   4.12658834  -0.09562996

