%chk=mol_6547.chk
# wB97XD/Def2SVP opt freq pop=full gfinput

C 4 H 8 O 2 S 1

1 2
C    1.09603953   0.10833996   0.17323993
C    2.56460905   0.02350999  -0.08582997
C    3.20181870  -1.10953951  -0.42590985
S    3.49664855   1.50215936   0.06677997
C    4.11600828   1.37391949   1.72604942
O    4.64117813   1.45476949  -0.82507968
O    2.59346914   2.63739896   0.03646998
H    0.61486977   0.76978970  -0.55424976
H    0.90549970   0.49698982   1.17885959
H    0.61331975  -0.87206966   0.10031996
H    2.66468906  -2.04606938  -0.54010975
H    4.27068853  -1.13251960  -0.62518972
H    3.27436876   1.31636953   2.41896915
H    4.70679808   2.26836920   1.93612933
H    4.74794817   0.48761982   1.80730927

