%chk=mol_5694.chk
# wB97XD/Def2SVP opt freq pop=full gfinput

C 5 H 11 N 1 O 1

1 2
N    0.77045971   0.08564997   0.37491983
C    2.20394897  -0.16796993   0.25376990
C    2.94342875   1.13061953  -0.07096998
C    4.46368837   0.95692968  -0.07282997
C    4.95646811   0.16293994  -1.24102950
C    6.19625759  -0.68647975  -1.12365961
O    4.88191795  -1.25844955  -1.08676958
H    0.29505989  -0.79536968   0.57033980
H    0.40687984   0.40824983  -0.52099979
H    2.36338902  -0.91378963  -0.53090984
H    2.57101917  -0.58644974   1.19688952
H    2.68835902   1.88738930   0.68235976
H    2.60998893   1.51909947  -1.04078960
H    4.78809834   0.50771981   0.87475967
H    4.92711830   1.94855928  -0.12280995
H    4.71142817   0.59347981  -2.20200920
H    6.75937748  -0.67592973  -0.19917992
H    6.78894758  -0.85903972  -2.01327920

