%chk=mol_5679.chk
# wB97XD/Def2SVP opt freq pop=full gfinput

C 5 H 5 N 1 O 1

1 2
N    0.99999964   0.00000000   0.00000000
C    2.15100908   0.00000000   0.00000000
C    3.59500861   0.00000000   0.00000000
O    4.11927843  -1.19657958   0.63158977
C    4.60491848  -0.84467965   1.93970931
C    4.71373844   0.63282979   1.93000925
C    4.14057827   1.11615956   0.82694966
H    3.99741840   0.03726999  -1.01692963
H    5.57171822  -1.32939959   2.09637928
H    3.89216852  -1.19321954   2.69386888
H    5.16524839   1.21820951   2.71691918
H    4.05790854   2.16185927   0.56992978

