%chk=mol_4115.chk
# wB97XD/Def2SVP opt pop=full gfinput

C 4 H 6 N 2 O 1

1 2
C    1.889462   0.013512  -0.007710
C    4.687088   0.085661  -0.011376
N    6.133560   2.113130  -0.017461
C    8.572365   1.229342  -0.019596
C    8.610480  -1.368237  -0.014815
O   10.428076  -3.089702  -0.014589
N    6.126965  -2.071178  -0.009505
H    1.111877   1.929505   0.015231
H    1.188543  -0.986097   1.661296
H    1.184386  -0.947754  -1.697636
H   10.157316   2.520838  -0.024566
H   12.032982  -2.186432  -0.019181
H    5.487047  -3.867136  -0.005178

