%chk=mol_6549.chk
# wB97XD/Def2SVP opt pop=full gfinput

C 4 H 6 O 2 S 1

1 2
C    1.889726   0.000000   0.000000
C    4.618491   0.000000   0.000000
C    6.867567   0.000000   0.000000
S   10.242902   0.010488  -0.023130
C   11.162631  -1.576920   2.774288
O   10.650345  -1.508342  -2.250343
O   10.652481   2.703707   0.140407
H    1.145136   1.929146   0.022091
H    1.145174  -0.983697   1.659671
H    1.145136  -0.945468  -1.681724
H   10.430779  -0.544052   4.401474
H   13.224058  -1.615829   2.832813
H   10.422596  -3.500510   2.725401

