%chk=mol_3901.chk
# wB97XD/Def2SVP opt pop=full gfinput

C 5 H 11 N 1 O 1

1 2
C    1.849569  -0.191694   0.591787
C    4.509643   0.337789  -0.325845
C    6.065586   2.237285   1.201923
C    7.768286  -0.024094   1.836644
C   10.478191   0.013209   0.836582
N   12.011024   1.926840   2.123636
O    6.200362  -1.710278   0.336352
H    1.028219  -1.786434  -0.438492
H    0.635666   1.454352   0.285235
H    1.815252  -0.647855   2.609504
H    4.571588   0.686046  -2.368205
H    5.110443   3.074471   2.832038
H    6.933651   3.731926   0.069618
H    7.681170  -0.575629   3.834500
H   10.506272   0.378115  -1.201904
H   11.345613  -1.841387   1.143889
H   11.425001   3.684248   1.596157
H   13.832398   1.777987   1.510042

