%chk=mol_4386.chk
# wB97XD/Def2SVP opt freq pop=full gfinput

C 4 H 6 N 2 O 1

1 2
C    0.99999964   0.00000000   0.00000000
C    2.44399905   0.00000000   0.00000000
C    3.63415861   0.00000000   0.00000000
C    5.07220793   0.00098000   0.00317000
N    5.61280823  -1.16734958  -0.07947997
N    5.73611784   1.18988955   0.09505997
O    7.05008745   1.04263961   0.56553978
H    0.60595977   1.02085960   0.01167999
H    0.60595977  -0.52054983   0.87824970
H    0.60595977  -0.50031978  -0.88992965
H    4.88899803  -1.89220929  -0.14000994
H    5.23016787   1.96483934   0.51591980
H    7.27629757   0.12340995   0.29413989

