%chk=mol_0511.chk
# wB97XD/Def2SVP opt pop=full gfinput

C 4 H 6 N 2

1 2
C    2.147428  -0.074191   0.295194
N    4.569868  -0.084357   0.594735
N    5.672372   2.139794  -0.047905
C    8.439970   2.180177   0.015382
C    9.368337   4.691755  -0.721592
C   10.133241   6.743488  -1.321523
H    1.049554  -1.780216   0.759122
H    1.076256   1.565374  -0.424886
H    5.033834   3.592785   1.054921
H    9.188472   0.751336  -1.282822
H    9.107838   1.717156   1.920359
H   10.812578   8.560328  -1.862949

