%chk=mol_1281.chk
# wB97XD/Def2SVP opt pop=full gfinput

C 6 H 7 N 1

1 2
C    1.889726   0.000000   0.000000
C    4.618491   0.000000   0.000000
C    6.867567   0.000000   0.000000
C    9.596332   0.000000   0.000000
N   10.530499  -1.317120  -2.232239
C   10.507217   2.572238   0.000000
C   11.257968   4.692322   0.000000
H    1.145231   1.929203   0.022015
H    1.145061  -0.983659   1.659633
H    1.145212  -0.945430  -1.681781
H   10.300406  -0.989385   1.676489
H    9.862726  -0.396408  -3.784649
H    9.733960  -3.066685  -2.272188
H   11.935511   6.587906  -0.006501

