%chk=mol_4522.chk
# wB97XD/Def2SVP opt pop=full gfinput

C 4 H 10 N 2 O 1

1 2
C    1.509910   0.049586  -0.098058
C    4.345180  -0.380364   0.061662
C    5.790536   2.118988   0.063306
N    8.514879   1.735317   0.194169
N    9.616268   1.380464   2.608899
C    9.980399   1.264076  -1.930733
O   12.227265   0.696893  -1.899779
H    0.507883  -1.760204  -0.094543
H    1.008981   1.056886  -1.834735
H    0.836128   1.159215   1.513274
H    4.952103  -1.549065  -1.537387
H    4.778040  -1.451064   1.781237
H    5.215871   3.306832   1.661088
H    5.375194   3.163628  -1.677774
H   10.685986   2.950902   2.974164
H   10.944708  -0.023622   2.412935
H    8.908509   1.469281  -3.705791

