%chk=mol_1921.chk
# wB97XD/Def2SVP opt pop=full gfinput

C 6 H 9 N 1

1 2
N    1.968679   0.058430   0.273009
C    4.713449  -0.052969  -0.058260
C    5.497251  -2.370699  -1.654323
C    6.394644  -1.263906  -4.100177
C    6.488791   1.260410  -4.011341
C    5.670520   2.172920  -1.574236
C    5.822946   4.579846  -0.815077
H    1.525103   1.637051   1.276548
H    1.388703  -1.447965   1.315590
H    5.624354  -0.130712   1.800474
H    3.939096  -3.699290  -1.962254
H    7.041706  -3.402868  -0.735444
H    6.923616  -2.388633  -5.720560
H    7.107411   2.467756  -5.537502
H    5.205799   5.136389   1.058965
H    6.566005   6.046954  -2.040848

