%chk=mol_3076.chk
# wB97XD/Def2SVP opt pop=full gfinput

C 7 H 10

1 2
C    1.767102  -0.305418  -0.433598
C    4.605319   0.093523  -0.063948
C    6.062827  -1.422737  -1.899269
C    7.247534  -2.667178  -3.383101
C    5.356637   2.864674  -0.240128
C    4.819784   4.250958  -2.669144
C    6.462863   4.060870   1.712073
H    0.674462   0.857085   0.885809
H    1.260939  -2.286191  -0.097982
H    1.158364   0.157339  -2.358378
H    5.070362  -0.612366   1.832467
H    8.303230  -3.765733  -4.699692
H    2.787422   4.310560  -3.044765
H    5.762625   3.337596  -4.266850
H    5.488407   6.209357  -2.602153
H    6.870459   3.096316   3.477021
H    7.003268   6.037373   1.596592

