%chk=mol_4677.chk
# wB97XD/Def2SVP opt pop=full gfinput

C 5 H 9 N 1 O 1

1 2
C    1.864971  -0.224859  -0.248669
C    4.727509  -0.077573  -0.190995
N    5.914030  -2.409873  -0.361637
C    5.929243   2.173884  -0.022204
C    4.698596   4.707988   0.349259
C    8.740607   2.300855  -0.237198
O    9.939166   4.253358   0.103746
H    0.991974   1.464500  -1.058832
H    1.128885  -0.517974   1.662146
H    1.240038  -1.807731  -1.429918
H    4.753058  -3.894707   0.040346
H    7.554823  -2.551867   0.629846
H    2.714818   4.574517   0.908429
H    4.805385   5.817824  -1.393371
H    5.644555   5.765044   1.857582
H    9.713022   0.533148  -0.746971

