%chk=mol_0329.chk
# wB97XD/Def2SVP opt pop=full gfinput

C 5 H 3 N 1

1 2
C    1.834811  -0.029461  -0.000000
C    4.372902   0.000000   0.000000
C    5.701379  -2.300987   0.000000
C    6.825918  -4.248747   0.000000
C    5.688680   2.361024   0.000000
N    6.728861   4.291096   0.000000
H    0.739431   1.707575  -0.000000
H    0.780155  -1.790440  -0.000000
H    7.838622  -5.989468   0.000000

