%chk=mol_4849.chk
# wB97XD/Def2SVP opt freq pop=full gfinput

C 5 H 9 N 1 O 1

1 2
C    0.99895966  -0.05851998   0.00486000
C    2.51999903   0.00000000   0.00000000
O    2.99866891  -0.67503977  -1.16011965
C    3.00201893   1.36116946   0.00000000
C    3.39929867   2.48306894   0.00000000
C    3.88131857   3.84423852   0.00000000
N    2.76518893   4.76789808  -0.13787995
H    0.58192974   0.42870983   0.89182967
H    0.65729976  -1.09865963  -0.01681999
H    0.58035976   0.42867985  -0.88321966
H    2.90347886  -0.54124981   0.87095970
H    2.77127910  -0.11533996  -1.92210925
H    4.58787823   4.00247860  -0.82151967
H    4.41162872   4.06154823   0.93277967
H    2.30014896   4.59212828  -1.02687955
H    3.12560892   5.71828747  -0.18560992

