%chk=mol_3137.chk
# wB97XD/Def2SVP opt pop=full gfinput

C 6 H 12 O 1

1 2
C    4.146985   8.618984  -1.549292
C    6.250496   7.345044  -0.082184
O    7.320308   5.412591  -1.621971
C    9.343694   4.082696  -0.380232
C   11.186820   2.803371  -2.130761
C   11.950912   5.164395  -0.744533
C   13.824197   5.053676   1.353592
H    3.287802  10.136529  -0.439550
H    2.680614   7.249972  -2.056532
H    4.868879   9.411724  -3.319606
H    5.499708   6.511373   1.656723
H    7.709176   8.730875   0.406593
H    8.916314   3.100625   1.370014
H   10.839790   2.940130  -4.144188
H   11.973626   1.009170  -1.537160
H   12.123349   6.892814  -1.832373
H   13.748155   3.255204   2.370850
H   13.462542   6.574792   2.706126
H   15.737451   5.293312   0.610230

