%chk=mol_3327.chk
# wB97XD/Def2SVP opt pop=full gfinput

C 5 H 10 O 2

1 2
C    3.701671  -0.251560  -3.022145
O    4.170682   0.682040  -0.551800
C    5.800098   2.814502  -0.546377
C    4.376587   5.219083  -1.241229
C    5.639585   7.183473   0.385447
C    6.166101   5.691080   2.760040
O    6.815524   3.197719   1.942941
H    2.452109  -1.890444  -2.869587
H    5.465258  -0.855479  -3.917648
H    2.764953   1.176581  -4.186801
H    7.419046   2.499768  -1.801287
H    2.368828   5.054451  -0.750089
H    4.483848   5.646218  -3.261648
H    7.419291   7.779549  -0.491329
H    4.477668   8.857789   0.719589
H    7.712936   6.486636   3.875280
H    4.483130   5.558063   3.958655

