%chk=mol_1198.chk
# wB97XD/Def2SVP opt freq pop=full gfinput

C 6 H 15 N 1

1 2
C    2.31651902  -0.87604964  -1.32427955
C    2.01764917  -0.04697998  -0.07941997
C    2.73724890   1.32682955  -0.00508000
C    2.27834916   2.22397900  -1.17418957
C    2.33558893   2.03073931   1.30752945
N    4.20471859   1.21798944  -0.12392996
C    4.87238789   0.43869984   0.90882963
H    1.79713929  -1.83822930  -1.26162958
H    3.38573861  -1.08289957  -1.42709947
H    1.96937931  -0.37657988  -2.23342919
H    2.26405907  -0.64913976   0.80393970
H    0.93231964   0.11288995  -0.03310999
H    2.60712910   1.83432925  -2.14388919
H    2.68127894   3.23976898  -1.08027959
H    1.18586946   2.30614901  -1.20228958
H    2.55750895   1.41604948   2.18649912
H    1.25960958   2.24045920   1.32437956
H    2.85752892   2.98758888   1.42475951
H    4.61331844   2.15274930  -0.14420995
H    4.52327824  -0.59667981   0.93846965
H    4.76435852   0.88719970   1.90023923
H    5.94386768   0.40276983   0.68629974

