%chk=mol_4014.chk
# wB97XD/Def2SVP opt freq pop=full gfinput

C 4 H 6 N 2 O 1

1 2
C    1.02675962  -0.02669999  -0.00673000
C    2.50605893   0.05744998  -0.00011000
C    3.29030871   1.13606954   0.00374000
N    4.55282831   0.66467977   0.00985000
C    4.54156828  -0.69174975   0.01081000
N    5.53327799  -1.50352943   0.01733999
O    3.23913884  -1.16047955   0.00384000
H    0.56894976   0.96755964  -0.00352000
H    0.67259979  -0.56650978   0.87681967
H    0.68005973  -0.55757982  -0.89859968
H    3.04300880   2.18585920   0.00268000
H    5.39197779   1.21908951   0.01630999
H    5.13565826  -2.44913912   0.01590999

