%chk=mol_5707.chk
# wB97XD/Def2SVP opt pop=full gfinput

C 5 H 11 N 1 O 1

1 2
N    7.063040  -2.183654  -0.579541
C    4.919562  -0.523983  -0.127840
C    5.603662   2.221600   0.051703
C    7.914910   3.257283  -0.162441
C    8.424021   6.053000   0.000057
C    9.639606   7.070354  -2.416544
O    7.903401   7.011205  -4.472528
H    6.424407  -3.989420  -0.765056
H    8.180473  -2.180139   0.988006
H    3.969597  -1.096854   1.620327
H    3.560338  -0.756401  -1.672049
H    3.997583   3.467950   0.373693
H    9.547652   2.052979  -0.496129
H    9.697148   6.389126   1.598311
H    6.665480   7.084527   0.370386
H   11.326074   5.991301  -2.942247
H   10.204389   9.040960  -2.139982
H    7.338543   5.266232  -4.640601

