%chk=mol_6904.chk
# wB97XD/Def2SVP opt freq pop=full gfinput

C 6 H 13 N 1

1 2
C    2.96586895  -1.03583968  -0.67739975
C    2.39872909   0.15775993   0.07499997
C    3.36253858   1.30551958   0.09421997
C    3.47404861   2.31246924  -1.03230953
C    2.64009905   2.24634933  -2.26669908
C    2.84660912   2.71090913   0.27796990
N    3.56172872   3.62783861   1.16056955
H    2.25706911  -1.86916935  -0.65904975
H    3.90365839  -1.37403953  -0.22557992
H    3.17011881  -0.78295970  -1.72221935
H    2.18997931  -0.13949995   1.10954964
H    1.43767941   0.44359985  -0.36708984
H    4.28207827   1.03395963   0.60240978
H    4.46680832   2.68415880  -1.26083946
H    1.59534943   1.99410927  -2.05973911
H    3.04450893   1.49898934  -2.95543909
H    2.65225887   3.21529889  -2.77492905
H    1.76647937   2.84897900   0.28439990
H    4.56949806   3.48859882   1.10463965
H    3.30918884   3.45736885   2.13338923

