%chk=mol_2711.chk
# wB97XD/Def2SVP opt freq pop=full gfinput

C 6 H 12 O 1

1 2
C    1.12804961   0.18884994   0.15477996
C    2.62266898  -0.03852998  -0.06709997
C    2.86691880  -0.70732975  -1.41879952
C    3.36882877   1.26410949   0.00866000
O    3.68713856   1.68945932   1.34276950
C    4.79057837   1.31442952   0.50905979
C    5.69451809   2.43580914   0.14172995
H    0.94639963   0.65038973   1.13143957
H    0.57930982  -0.75803971   0.12070996
H    0.70854974   0.85430968  -0.60790980
H    2.98303890  -0.71644968   0.71741974
H    2.52034903  -0.07558997  -2.24425912
H    2.34396911  -1.66732943  -1.48045945
H    3.93543863  -0.89358968  -1.57217944
H    3.02774882   2.01229930  -0.69544977
H    5.31400824   0.39578986   0.73633969
H    5.14490843   3.36599874  -0.03622999
H    6.24860764   2.18820906  -0.76873976
H    6.41753721   2.61552906   0.94323963

