%chk=mol_5490.chk
# wB97XD/Def2SVP opt freq pop=full gfinput

C 4 H 7 N 1 O 2

1 2
N    0.94751966  -0.00799000  -0.33304989
C    2.36138916   0.04015998   0.03157999
C    3.31901884  -0.81727970  -0.74540973
C    3.35323882   0.68251973  -0.90960968
C    4.41057825   1.57795930  -0.37589988
O    5.21330833   1.05526960   0.57903981
O    4.52573824   2.72540903  -0.77595967
H    0.48133984   0.87469971  -0.11693996
H    0.44998986  -0.72465974   0.19606993
H    2.54707885   0.15262994   1.09777963
H    2.92807889  -1.39469945  -1.57908940
H    4.09861851  -1.34195948  -0.21155992
H    2.95558882   1.05000961  -1.85356927
H    5.00635815   0.13621995   0.81464970

