%chk=mol_5343.chk
# wB97XD/Def2SVP opt freq pop=full gfinput

C 5 H 11 N 1 O 1

1 2
C    1.76211929   1.90588927   1.33601952
O    3.17813873   1.94763923   1.22597957
C    3.63728857   1.21103954   0.09442997
C    5.14555836   1.25526953   0.06690998
C    5.86718798   0.11975995   0.12431996
C    5.72714806   2.64364886  -0.05852998
N    7.18709755   2.68725896  -0.09017996
H    1.46673942   2.50081897   2.20438910
H    1.41987944   0.87736970   1.48519945
H    1.29460955   2.33357930   0.44394982
H    3.23910880   1.65855932  -0.82418966
H    3.27128887   0.17923993   0.15991993
H    5.39487839  -0.85334969   0.20840992
H    6.95225716   0.12952995   0.07935997
H    5.38557768   3.26458859   0.77709973
H    5.35330820   3.09993887  -0.98203963
H    7.52782726   2.38395905   0.82151967
H    7.47934723   3.65836859  -0.18264994

