%chk=mol_6359.chk
# wB97XD/Def2SVP opt pop=full gfinput

C 5 H 5 N 1 O 1

1 2
O    1.979526  -0.426417   0.260707
N    4.624122  -0.282495   0.208021
C    5.413744   2.006795  -0.139348
C    3.874128   4.336922  -0.465024
C    4.878101   6.633147  -0.816135
C    8.149803   2.000294  -0.170869
C   10.419950   1.990373  -0.196361
H    1.695084  -2.228233   0.530219
H    1.841009   4.094110  -0.404855
H    6.900619   6.961278  -0.888814
H    3.659266   8.267892  -1.043015
H   12.432508   1.959570  -0.215731

