%chk=mol_7034.chk
# wB97XD/Def2SVP opt pop=full gfinput

C 6 H 11 N 1

1 2
C    1.909039   0.059734  -1.656156
C    4.680058   0.060528  -1.125597
C    6.094083   2.156914  -0.907881
C    8.806313   2.226608  -0.366815
N   10.526266   1.087311  -2.208428
C   10.508049   3.832440  -2.001258
C   12.738965   5.132440  -0.881425
H    1.528977  -0.963893  -3.412052
H    1.148103   1.973403  -1.847434
H    0.898338  -0.885639  -0.119903
H    5.573993  -1.778440  -0.902703
H    5.176414   3.987247  -1.108948
H    9.319921   1.961328   1.601089
H    9.543438   0.503140  -3.763295
H    9.715479   4.864155  -3.582316
H   13.577814   4.056561   0.674840
H   12.183613   6.986279  -0.152123
H   14.194942   5.420169  -2.322077

