%chk=mol_0966.chk
# wB97XD/Def2SVP opt pop=full gfinput

C 4 H 9 N 1 O 1

1 2
C    1.780009  -0.023962   0.077195
C    4.644928   0.006973  -0.079387
O    5.384094   0.079539  -2.719297
C    5.970438   1.946626   1.673182
N    7.822295  -0.026211   2.387877
C    6.007685  -1.994511   1.574539
H    1.119134  -0.079709   2.038372
H    1.008963  -1.681384  -0.893784
H    0.977688   1.665567  -0.809256
H    7.220624   0.096074  -2.691669
H    4.831784   2.618612   3.267866
H    6.801918   3.587116   0.727734
H    9.442962   0.015193   1.346487
H    6.868644  -3.569693   0.547888
H    4.881748  -2.766635   3.132769

