%chk=mol_1303.chk
# wB97XD/Def2SVP opt freq pop=full gfinput

C 5 H 4 N 2

1 2
C    0.98030967  -0.18172994   0.00574000
C    2.47352910  -0.03624999   0.00342000
C    3.13901877   1.13798952   0.00000000
C    2.43601918   2.35561895   0.00000000
N    1.86051929   3.35242867   0.00000000
C    4.54501867   1.13798952   0.00000000
N    5.69602823   1.13798952   0.00000000
H    0.70992970  -1.24327958  -0.00936000
H    0.53739977   0.28352991  -0.88100970
H    0.54365981   0.25767991   0.90748966
H    3.03252888  -0.97230965   0.00586000

