%chk=mol_6939.chk
# wB97XD/Def2SVP opt freq pop=full gfinput

C 5 H 8 N 2

1 2
C    2.25624919  -0.96852964  -0.79843968
C    2.03955936   0.24478991  -0.27380988
C    3.05492902   1.27182961  -0.04542999
C    3.49373889   2.13257909  -1.18592954
N    2.61850905   2.67544889  -0.13833995
C    3.18519878   3.55656886   0.74559969
N    2.59117913   4.57749844   1.26104963
H    1.43876946  -1.67117929  -0.92758965
H    3.24708867  -1.28576946  -1.10818958
H    1.02250957   0.49795982   0.02145999
H    3.75986862   1.06410956   0.75298971
H    2.99430895   2.05161929  -2.14229918
H    4.50330830   2.52086902  -1.20042956
H    4.23547840   3.34605861   1.01334965
H    1.63614929   4.59149837   0.88392967

