%chk=mol_4441.chk
# wB97XD/Def2SVP opt freq pop=full gfinput

C 4 H 6 N 2 O 1

1 2
C    0.99999964   0.00000000   0.00000000
C    2.44399905   0.00000000   0.00000000
C    3.63415861   0.00000000   0.00000000
C    5.08247805  -0.00667000   0.00062000
O    5.68115807  -1.07214963   0.09470997
N    5.74897766   1.20267951  -0.10612996
N    5.11887836   2.45987916  -0.21715991
H    0.60613972   1.02093959   0.01130000
H    0.60590976  -0.52015978   0.87844968
H    0.60592973  -0.50055981  -0.88976967
H    6.76538754   1.14939952  -0.10138997
H    4.50313854   2.59001899   0.59095973
H    4.50338840   2.44647908  -1.03577960

