%chk=mol_1482.chk
# wB97XD/Def2SVP opt freq pop=full gfinput

C 6 H 13 N 1

1 2
C    2.34384918  -0.44574982  -1.44745946
C    2.50205898   0.02999999  -0.00549000
N    3.21210885  -0.98319960   0.77876973
C    3.27744865   1.34497952   0.03397999
C    2.54391909   2.60768890  -0.50159985
C    3.25268865   3.40413880   0.61152977
C    3.33712864   2.08322930   1.40219951
H    1.78641927   0.28789991  -2.03975916
H    1.79730928  -1.39363945  -1.49231935
H    3.31553864  -0.58873981  -1.93321931
H    1.50773942   0.16618994   0.43547985
H    4.11477852  -1.18167949   0.34686989
H    2.69271898  -1.86044919   0.74972975
H    4.27876854   1.24148953  -0.41293985
H    1.45312941   2.58109903  -0.39395985
H    2.79243898   2.90273881  -1.52455938
H    4.22896862   3.80459857   0.31509990
H    2.66563916   4.20049858   1.07564962
H    4.25314856   1.93766928   1.98068929
H    2.47262907   1.90809917   2.05367923

