%chk=mol_2871.chk
# wB97XD/Def2SVP opt pop=full gfinput

C 6 H 12 O 1

1 2
C    5.187242  -2.117362  -2.671260
C    5.609992  -1.034701  -0.045127
C    6.187171   1.745162  -0.144432
C    8.494036   2.827559  -0.122473
C   10.928910   1.358467  -0.106392
O    8.949081   5.397285  -0.167392
C    6.857079   7.081597  -0.238710
H    4.725959  -4.130885  -2.549675
H    6.882364  -1.921492  -3.843684
H    3.624155  -1.160745  -3.635361
H    7.099531  -2.091832   0.926060
H    3.898259  -1.306594   1.092092
H    4.502877   2.917737  -0.209911
H   10.678862  -0.661253  -0.454989
H   11.881993   1.588183   1.715871
H   12.188280   2.068022  -1.588050
H    7.597115   9.012160  -0.268266
H    5.682860   6.877602   1.452595
H    5.741007   6.804204  -1.958796

