%chk=mol_6920.chk
# wB97XD/Def2SVP opt freq pop=full gfinput

C 6 H 11 N 1

1 2
C    0.78071976   0.07221998   0.22220992
C    2.11945915   0.09560996   0.26788992
C    3.01002884   1.30438948   0.14449994
C    2.34961915   2.67894912   0.09381996
C    3.49880862   3.59732866   0.46200985
N    4.16585827   2.89199877   1.55398941
C    4.01151848   1.45255947   1.30216944
H    0.24228992  -0.86636966   0.31712988
H    0.18534993   0.96906966   0.08956996
H    2.63762903  -0.85517967   0.39149985
H    3.58821869   1.18014956  -0.78288972
H    1.54497945   2.77217889   0.83400971
H    1.94005930   2.90765882  -0.89513963
H    4.18371820   3.71949863  -0.38535985
H    3.15222883   4.58589792   0.77581972
H    5.14885807   3.15116882   1.60949934
H    4.97400856   1.00248969   1.03251958
H    3.66035867   0.96798968   2.22000909

