%chk=mol_3918.chk
# wB97XD/Def2SVP opt freq pop=full gfinput

C 5 H 7 N 1 O 1

1 2
C    0.99555963   0.05067998   0.03980998
C    2.46885896  -0.03768999  -0.02077999
C    3.28231883  -1.10121953  -0.05721998
C    4.72076797  -0.72681969  -0.11925995
N    4.63194799   0.69641972  -0.11676995
C    3.33857870   1.15151954  -0.06021998
O    2.97413898   2.31044936  -0.04608998
H    0.53630978  -0.94254959   0.01728999
H    0.60824972   0.61935973  -0.81156969
H    0.67810971   0.54850984   0.96141964
H    2.94534898  -2.12770915  -0.04355998
H    5.27997828  -1.06089962   0.75770974
H    5.20289803  -1.06268954  -1.04012954
H    5.40924788   1.34089959  -0.15271994

