%chk=mol_1283.chk
# wB97XD/Def2SVP opt pop=full gfinput

C 6 H 15 N 1

1 2
C    5.617589  -1.692136  -2.177834
C    4.801719  -0.057221   0.048018
C    5.743048   2.716368  -0.023433
C    4.640317   4.118583  -2.320735
N    4.772012   4.010056   2.244428
C    8.660388   2.963941  -0.083639
C   10.076511   1.688584   2.079511
H    4.904331  -3.619260  -1.929316
H    7.675331  -1.807693  -2.334624
H    4.858864  -0.979105  -3.963965
H    5.434663  -0.979540   1.794068
H    2.727026  -0.080313   0.122114
H    5.372076   3.356059  -4.099477
H    5.131419   6.133654  -2.279425
H    2.574506   3.980784  -2.376557
H    5.312492   3.057822   3.827773
H    2.845039   3.973338   2.240705
H    9.177625   4.975422  -0.082127
H    9.388537   2.206747  -1.871226
H    9.527470   2.463334   3.915399
H   12.110594   1.998007   1.859679
H    9.759453  -0.352528   2.101697

