%chk=mol_4995.chk
# wB97XD/Def2SVP opt freq pop=full gfinput

C 4 H 6 N 2 O 1

1 2
C    1.10977960   0.00439000  -0.13099995
N    2.54569888   0.00835000  -0.25299990
C    3.30758882  -1.19558954   0.06755998
C    4.64460802  -0.56933975   0.49514982
O    5.63918781  -1.21015954   0.80708969
N    4.52924824   0.81306970   0.50651979
C    3.32809877   1.06924951   0.09892996
H    0.69267970  -0.94671965  -0.47873980
H    0.67280978   0.80411965  -0.73757970
H    0.80834967   0.15345994   0.91121966
H    3.44648886  -1.82279932  -0.81576967
H    2.87599874  -1.74903929   0.90550965
H    2.87794876   2.07288909   0.02863999

