%chk=mol_2733.chk
# wB97XD/Def2SVP opt freq pop=full gfinput

C 6 H 12 O 1

1 2
C    1.15826952   0.21244992   0.06467998
C    2.66644907  -0.08720996  -0.00357000
C    3.05140901  -0.96109962   1.20334947
C    2.95953894  -0.88184971  -1.29048955
C    3.41705894   1.23081958  -0.06774998
C    3.83000851   2.02331924   1.14868963
O    4.76272821   1.20556951   0.42455983
H    0.83264971   0.80733967  -0.79594970
H    0.91143966   0.78322965   0.96716964
H    0.56792980  -0.71072972   0.07764997
H    2.81422877  -0.46915984   2.15207911
H    4.12206841  -1.19307959   1.20684958
H    2.50912905  -1.91341925   1.18809962
H    2.66886878  -0.31524986  -2.18252921
H    2.41539907  -1.83259928  -1.30615950
H    4.02929831  -1.10304964  -1.37966955
H    3.22761893   1.78453934  -0.98078966
H    3.53138852   1.69531941   2.13481903
H    3.93093848   3.09716892   1.04915965

