%chk=mol_0111.chk
# wB97XD/Def2SVP opt pop=full gfinput

C 3 H 5 N 1 O 1

1 2
O    2.221732  -0.388055   0.550213
C    4.464988  -0.084754   0.296252
C    6.319206   2.114906  -0.121056
C    8.115675   0.023263  -1.049233
N    6.374103  -1.799435   0.105730
H    6.884065   3.075359   1.619930
H    5.730519   3.478041  -1.551881
H    8.249335  -0.199820  -3.100115
H    9.992399   0.011754  -0.190654
H    5.901898  -3.552307  -0.489836

