%chk=mol_4036.chk
# wB97XD/Def2SVP opt freq pop=full gfinput

C 5 H 9 N 1 O 1

1 2
C    0.82230967   0.13187996  -0.57709974
C    2.19594908  -0.07191998  -0.00712000
C    3.15736890  -0.94487965  -0.79179972
O    3.22870874   0.48365983  -0.84455967
C    2.40810895   0.16942994   1.49243951
C    1.32233942   0.50812984   2.48573899
N    1.88934922  -0.83044970   2.43646908
H    0.80712968   0.00789000  -1.66533935
H    0.45884982   1.14042962  -0.35369986
H    0.12096996  -0.59394974  -0.15054995
H    2.79581904  -1.46550941  -1.66979933
H    3.93276834  -1.47019935  -0.24804991
H    3.39885879   0.55032980   1.74346936
H    0.30102989   0.60442978   2.14408922
H    1.58097935   1.11820948   3.34185886
H    2.55521917  -0.97775960   3.19714880

