%chk=mol_0569.chk
# wB97XD/Def2SVP opt freq pop=full gfinput

C 4 H 8 N 2

1 2
N    0.95304960  -0.05131998   0.21662992
C    2.40901923  -0.01428999  -0.02339999
C    2.97738886   1.43281937   0.00000000
N    2.46947908   2.16148925   1.17067957
C    4.42138815   1.43281937   0.00000000
C    5.61154795   1.43281937   0.00000000
H    0.63463974  -1.01907957   0.15222993
H    0.47984982   0.45010984  -0.53718978
H    2.62848902  -0.48501983  -0.98869962
H    2.89098907  -0.62221974   0.75117970
H    2.60971880   1.95667934  -0.89058971
H    2.88599896   1.74490941   2.00281930
H    1.48006940   1.90212929   1.24603951
H    6.67701721   1.44479942   0.00504000

