%chk=mol_6863.chk
# wB97XD/Def2SVP opt freq pop=full gfinput

C 6 H 11 N 1

1 2
C    0.97966963   0.00446000  -0.07778998
C    2.49885893  -0.01648999   0.03825998
N    2.93655872  -1.24958956   0.72955972
C    3.40915871  -0.84205967   2.06909919
C    3.52740860   0.64029980   2.01558924
C    4.11569834   1.41750944   3.13382888
C    3.01460886   1.10444963   0.87294966
H    0.62305975  -0.84445971  -0.67196977
H    0.64020979   0.92304963  -0.56971979
H    0.49264982  -0.04565999   0.90371966
H    2.94593906   0.02076999  -0.96155959
H    3.74490857  -1.60893941   0.22425991
H    4.37025833  -1.31734943   2.29019904
H    2.68083906  -1.14684963   2.82814908
H    4.12261820   2.49085903   2.91744900
H    5.14861822   1.10408962   3.31463885
H    3.53979850   1.26176953   4.05130816
H    2.95457888   2.14443922   0.58746976

