%chk=mol_5926.chk
# wB97XD/Def2SVP opt freq pop=full gfinput

C 6 H 13 N 1

1 2
C    0.99828964  -0.01107000   0.05292998
C    2.52612925   0.01587999   0.00982000
C    3.00059891   0.08543997  -1.44893944
C    3.08800888   1.16100955   0.84999967
C    4.47088861   0.67309976   1.23498952
C    4.31679821  -0.83506966   1.33454955
N    3.05513883  -1.18504953   0.67433977
H    0.62510973  -0.09468997   1.08122957
H    0.59648979  -0.86059970  -0.51253980
H    0.57825977   0.90614963  -0.37569988
H    4.09317827   0.07045997  -1.53227949
H    2.64733887   1.00637960  -1.92863929
H    2.61616898  -0.75995970  -2.03247929
H    2.49381924   1.31446946   1.76007926
H    3.12764883   2.11383915   0.31133988
H    5.19248772   0.92728961   0.44965982
H    4.81885862   1.12070966   2.17031908
H    5.16564798  -1.34677947   0.87015969
H    4.26695824  -1.15087962   2.38262916
H    3.19392896  -1.94637930   0.01141000

