%chk=mol_1407.chk
# wB97XD/Def2SVP opt pop=full gfinput

C 5 H 6 N 2

1 2
C    2.222299  -0.740395   1.081793
C    4.433619  -0.613670   0.584379
C    7.138289  -0.462151  -0.015704
N    8.044640   2.088317   0.524361
C   10.741865   2.392639  -0.072547
C   12.469509   0.991785   1.616547
N   13.799158  -0.129579   2.954266
H    0.259951  -0.844556   1.521778
H    7.416570  -0.910999  -2.018360
H    8.159157  -1.874004   1.102958
H    7.750825   2.468530   2.391543
H   11.185176   4.410942   0.069712
H   11.093316   1.868580  -2.045836

