%chk=mol_6691.chk
# wB97XD/Def2SVP opt freq pop=full gfinput

C 4 H 5 N 1 O 1 S 1

1 2
O    1.95469928  -0.42799982  -1.28690946
C    2.43854904  -0.04870998  -0.00579000
C    2.88701892   1.36790943  -0.00468000
C    2.06756926   2.47498918  -0.14232995
S    3.01826906   3.89525867  -0.07230997
N    4.46770811   3.11794901   0.13636996
C    4.24191856   1.80736935   0.13660996
H    1.70715940  -1.36571944  -1.22848952
H    3.26205873  -0.71898973   0.26339990
H    1.63288939  -0.18941994   0.72327971
H    0.99697959   2.51430893  -0.28385991
H    5.10590792   1.16414952   0.24936990

