%chk=mol_5277.chk
# wB97XD/Def2SVP opt freq pop=full gfinput

C 5 H 9 N 1 O 1

1 2
C    1.00594962   0.10400996  -0.13067995
O    2.40716910   0.04934998  -0.36499986
C    3.07685876   1.23433959  -0.22689991
C    4.40172863   1.34313953  -0.29050991
C    4.81122828   2.75548887  -0.09443997
N    3.56305861   3.54406881  -0.05759998
C    2.45189905   2.56678915   0.01464000
H    0.60783976  -0.91131967  -0.22427991
H    0.50886983   0.73088974  -0.87725967
H    0.78863972   0.45950982   0.88250965
H    5.08575821   0.52327979  -0.44388983
H    5.35686827   2.87285900   0.84766966
H    5.45186758   3.09732890  -0.91448969
H    3.48363876   4.03424835  -0.94728965
H    1.69903934   2.80965900  -0.74182975
H    1.99189925   2.61380887   1.00694954

