%chk=mol_6385.chk
# wB97XD/Def2SVP opt freq pop=full gfinput

C 4 H 7 N 1 O 2

1 2
O    0.51016980  -0.28488988  -0.63117975
N    1.50261939  -0.38643986   0.37932986
C    2.59717917  -1.27914953   0.02374999
C    2.07108927  -2.67252898  -0.16504994
C    2.38091898  -3.71539879   0.61731976
C    1.78511930   0.83782971   0.95524961
O    2.81756902   1.13968956   1.54158950
H   -0.20886992  -0.81359971  -0.23556991
H    3.35903883  -1.24376953   0.81063974
H    3.05644894  -0.91576964  -0.90233970
H    1.41649950  -2.83127880  -1.01887965
H    3.04179883  -3.61142850   1.47308946
H    1.97664928  -4.70271826   0.41453984
H    0.93247962   1.53448951   0.88583970

