%chk=mol_5281.chk
# wB97XD/Def2SVP opt pop=full gfinput

C 4 H 6 N 2 O 1

1 2
C    5.781731  -2.211925   0.970337
O    4.441291   0.070184   0.546849
C    5.936915   2.118723   0.310236
N    4.731194   4.291568  -0.088269
N    6.605424   5.991415  -0.251182
C    8.954713   4.961589   0.031540
C    8.580093   2.415694   0.404061
H    4.399585  -3.741450   1.133137
H    6.850352  -2.136581   2.741898
H    7.028855  -2.655878  -0.621380
H    6.139626   7.826017  -0.558490
H   10.641463   6.108521  -0.056182
H   10.020821   1.002046   0.697933

