%chk=mol_3586.chk
# wB97XD/Def2SVP opt freq pop=full gfinput

C 5 H 4 O 2

1 2
O    1.23780954  -0.10142996   0.76011974
C    2.31117916  -0.00116000   0.21303992
C    3.32907867   1.10918951  -0.07304997
C    4.10868835  -0.03089999  -0.72998971
O    3.04780889  -0.96744967  -0.38854986
C    4.26698828   0.03911998  -2.16421914
C    4.38743877   0.09207997  -3.35968876
H    3.78233862   1.53406954   0.82501972
H    2.95017886   1.89826930  -0.72625971
H    5.03280830  -0.29103988  -0.19990993
H    4.48434830   0.12895995  -4.41984844

