%chk=mol_5789.chk
# wB97XD/Def2SVP opt freq pop=full gfinput

C 5 H 11 N 1 O 1

1 2
N    1.87774932  -1.28553951  -0.63529980
C    1.61603940   0.04444999  -0.07372997
C    2.88162875   0.90873969  -0.08145997
O    3.85949850   0.30380991   0.77086973
C    5.05753803   1.07208955   0.81477970
C    6.02781773   0.33492988   1.68037939
C    6.59817743   0.83154964   2.78604913
H    1.11574960  -1.91152930  -0.37991986
H    2.71211886  -1.65079939  -0.16725993
H    1.26593947  -0.07895997   0.95756966
H    0.82408971   0.52950978  -0.65286976
H    2.64018893   1.90837932   0.29564989
H    3.27893877   0.99739963  -1.09898961
H    4.84223843   2.07071924   1.21216965
H    5.47463799   1.17069960  -0.19395992
H    6.26876736  -0.67875975   1.36970949
H    6.38101768   1.83398926   3.14048886
H    7.29105711   0.23158991   3.36776876

