%chk=mol_0190.chk
# wB97XD/Def2SVP opt pop=full gfinput

C 4 H 6 O 1

1 2
C   -2.289063   0.030103  -0.289752
C   -0.705662  -2.338517   0.163556
C    1.885210  -1.311621  -0.040157
C    1.740816   1.186446  -0.169093
O   -0.653127   2.209260  -0.116350
H   -3.134281   0.013606  -2.181009
H   -3.812031   0.214635   1.098082
H   -1.107625  -3.798368  -1.242400
H   -1.038688  -3.121922   2.049257
H    3.604785  -2.407643  -0.011206
H    3.253012   2.548522  -0.253563

