%chk=mol_5429.chk
# wB97XD/Def2SVP opt freq pop=full gfinput

C 4 H 6 N 2 O 1

1 2
C    3.02361894  -0.90955961   0.71928978
O    2.68165898  -0.07941997  -0.38269985
N    3.26429868   1.16504955  -0.18791991
C    2.59911895   2.30436897   0.13866995
C    3.55258870   3.29584885   0.15883994
C    4.75113821   2.63916898  -0.19154993
N    4.57246828   1.33293951  -0.41114986
H    2.49096894  -1.85835934   0.60654980
H    2.71401906  -0.45588982   1.66707933
H    4.09749842  -1.12308955   0.73215973
H    1.53487945   2.30478930   0.31658989
H    3.40655875   4.34310865   0.37919986
H    5.74359798   3.05929875  -0.30080989

