%chk=mol_1795.chk
# wB97XD/Def2SVP opt pop=full gfinput

C 5 H 14 N 2

1 2
C    2.015695  -0.183322   0.325354
N    4.768232  -0.176387   0.182491
C    5.727401   2.404960  -0.177086
C    8.666530   2.558330  -0.295421
C    9.694824   1.129886  -2.598581
N    9.405790   5.255083  -0.346349
C   12.125881   5.640209  -0.139008
H    1.346562  -2.120726   0.601897
H    1.164922   0.540121  -1.416293
H    1.344465   0.941594   1.926840
H    5.303063  -1.271049  -1.311640
H    5.073140   3.570902   1.409868
H    4.930315   3.215804  -1.913367
H    9.422458   1.688603   1.429861
H    9.008267   1.962065  -4.365608
H    9.129683  -0.858559  -2.568856
H   11.762600   1.139184  -2.643651
H    8.559760   6.142555   1.141980
H   13.114586   5.049348  -1.854350
H   12.922098   4.650484   1.493451
H   12.507190   7.659268   0.101743

