%chk=mol_3722.chk
# wB97XD/Def2SVP opt freq pop=full gfinput

C 6 H 10 O 1

1 2
O    1.63817930  -0.41439983  -1.13356960
C    2.48803902  -0.21487993  -0.01724999
C    2.87334871   1.22487950   0.00412000
C    4.14055824   1.67354941  -0.01965999
C    4.51895809   3.12616873  -0.01576000
C    5.35738802   3.46245885   1.18281960
C    6.61444759   3.92379856   1.12261963
H    1.44520950  -1.36548948  -1.17042959
H    3.35602880  -0.87514967  -0.10908996
H    1.93915927  -0.47108981   0.89435965
H    2.04996920   1.93343925   0.03369999
H    4.96282816   0.96306962  -0.06650998
H    3.62767863   3.76492858  -0.00758000
H    5.05791807   3.34788871  -0.94426966
H    4.89221811   3.32741857   2.15767908
H    7.11906719   4.08147860   0.17454992
H    7.16506720   4.15368843   2.02924919

