%chk=mol_4360.chk
# wB97XD/Def2SVP opt freq pop=full gfinput

C 5 H 8 N 2

1 2
C    1.78583932  -0.23051992   0.22835992
C    0.89995968  -1.44881952   0.54400980
C   -0.16359994  -0.91585964  -0.44187984
C   -1.50650942  -0.42596984   0.12628995
N   -1.47647941   0.81272972   0.49568981
N   -0.19276993   1.26043952   0.30657989
C    0.63661981   0.39982986  -0.55938977
H    2.64621878  -0.48508981  -0.40260985
H    2.15277934   0.32548988   1.09649956
H    1.33510959  -2.41537929   0.27417991
H    0.56761980  -1.49377954   1.58770943
H   -0.24366991  -1.48205948  -1.37408948
H   -2.39268899  -1.07434952   0.15612994
H   -0.15705994   2.26835918   0.14804994
H    0.83288968   0.77275968  -1.56611943

