%chk=mol_5511.chk
# wB97XD/Def2SVP opt freq pop=full gfinput

C 5 H 11 N 1 O 1

1 2
N    1.00061965   0.02501999   0.17291993
C    2.43455911   0.04540998  -0.07141998
C    3.09548879   1.06759953   0.87490970
C    4.16022825  -0.01855999   1.20123947
C    5.44114828   0.00582000   0.37930986
O    6.27031803   1.07390964   0.82205969
C    3.10681891  -1.06918967   0.75722969
H    0.52315980  -0.77361971  -0.24324991
H    0.51263982   0.85230970  -0.16870995
H    2.74215913   0.10396996  -1.11954951
H    2.50541902   1.35873950   1.75345945
H    3.46508861   1.97754920   0.39270985
H    4.39541817  -0.08432997   2.27120924
H    5.25140810   0.13208996  -0.69148970
H    5.99949789  -0.92531967   0.51703984
H    5.78701782   1.90447927   0.67559975
H    3.48850870  -1.91636920   0.17912993
H    2.51847887  -1.46161950   1.59642935

