%chk=mol_4087.chk
# wB97XD/Def2SVP opt freq pop=full gfinput

C 5 H 11 N 1 O 1

1 2
C    1.18867958  -0.10324996  -0.11955995
C    2.66638899   0.07822997  -0.15347993
N    3.43867874  -0.38894984  -1.29775953
C    3.36153865   1.07541955  -1.07236958
C    2.58043909   1.89156926  -2.06867909
C    4.63312864   1.73601937  -0.57940978
O    5.70468807   1.36143947  -1.43796945
H    0.72435969   0.71119976   0.44510981
H    0.93967968  -1.04466963   0.38102984
H    0.73614973  -0.13021995  -1.11566961
H    3.10825896  -0.10922996   0.82035971
H    2.82886887  -0.66906977  -2.06923914
H    1.77380931   1.32547951  -2.54513907
H    3.23926878   2.25213933  -2.86604881
H    2.13585925   2.76132894  -1.57410944
H    4.88786793   1.42254937   0.43825984
H    4.54626846   2.82714891  -0.58246976
H    5.56510782   0.40636984  -1.59474933

