%chk=mol_6202.chk
# wB97XD/Def2SVP opt pop=full gfinput

C 5 H 7 N 1 O 1

1 2
O    6.161716   7.103972  -2.949485
C    4.774412   6.078399  -1.402215
C    5.503053   3.787899   0.133887
C    8.204246   2.869493  -0.343250
C   10.282794   4.678376   0.551195
C   10.198531   5.088957   3.294624
N   10.081179   5.405335   5.461289
H    2.846476   6.797401  -1.060023
H    4.176087   2.282714  -0.378814
H    5.197654   4.230114   2.130836
H    8.463687   2.522860  -2.371021
H    8.444506   1.040823   0.606167
H   10.160698   6.493779  -0.431047
H   12.122046   3.865567   0.050380

