%chk=mol_6720.chk
# wB97XD/Def2SVP opt freq pop=full gfinput

C 4 H 6 N 2 S 1

1 2
S    1.46036947   0.04641998   1.39781940
C    2.67728901   0.00923000   0.28898987
N    3.26464868  -1.13603961  -0.24779992
C    4.29192829  -0.80729967  -1.19848955
C    5.53642797  -0.06032998  -0.82390970
C    4.32220840   0.72684973  -1.21610951
N    3.30901861   1.11820948  -0.27341992
H    2.98177886  -2.07099915   0.01203999
H    4.23405838  -1.32141948  -2.14972901
H    5.83857822  -0.05427998   0.21680991
H    6.36756802  -0.08476997  -1.51866949
H    4.28464842   1.22090960  -2.17873907
H    3.06411886   2.06852913  -0.03542999

