%chk=mol_1054.chk
# wB97XD/Def2SVP opt pop=full gfinput

C 4 H 7 N 1 O 1

1 2
C    5.077430   1.656628  -2.397892
N    7.295609   2.247754  -1.579906
O    9.050447   0.578596  -2.642026
C   11.491292   1.346959  -1.717478
C   13.710587   0.500381  -3.278788
C   12.909645   3.221227  -3.316148
H    3.420026   2.751215  -1.781483
H    4.734236   0.077441  -3.713841
H   11.757082   1.424116   0.314507
H   13.338745  -0.633380  -4.942333
H   15.438571   0.018670  -2.293391
H   14.079348   4.593112  -2.347815
H   11.976102   3.937585  -4.991560

