%chk=mol_4814.chk
# wB97XD/Def2SVP opt freq pop=full gfinput

C 5 H 11 N 1 O 1

1 2
C    2.76848912  -1.56884944  -0.39292985
C    2.08430910  -0.23029992  -0.17071994
O    1.12303948  -0.36485988   0.87332964
C    3.04269886   0.89345962   0.20041992
C    4.02694845   0.60541975   1.30778956
C    3.43133879   1.89554930  -0.86546969
N    2.46235895   2.25588918   0.16391994
H    3.55535865  -1.49381948  -1.15027952
H    2.03807926  -2.31758928  -0.71956974
H    3.20935869  -1.95517933   0.53289980
H    1.53200948   0.02715999  -1.08245957
H    0.78713965   0.54043984   1.01567960
H    4.57806826   1.50218940   1.61192942
H    4.76521826  -0.13316995   0.98145968
H    3.51189876   0.21633992   2.19154930
H    3.03562880   1.77761936  -1.86758935
H    4.39985847   2.37886906  -0.81264967
H    2.89100909   2.85696888   0.87148964

