%chk=mol_5762.chk
# wB97XD/Def2SVP opt freq pop=full gfinput

C 4 H 7 N 1 O 2

1 2
N    0.44414982   0.66686976   0.11121996
C    1.75209928   0.26276991   0.18428993
C    2.83364892   1.01064956  -0.05611998
C    4.19684839   0.42892984   0.07423998
O    4.38390827  -0.76322973   0.31706989
C    5.36777782   1.38606954  -0.11826996
O    6.61893749   0.73328972   0.04778998
H   -0.21142992  -0.08400998  -0.09928996
H    0.27668992   1.50537944  -0.43906984
H    1.85347939  -0.78139973   0.48542979
H    2.75778890   2.05365920  -0.33424988
H    5.30271816   2.19164920   0.61783975
H    5.33170795   1.79989934  -1.12983954
H    6.41471720  -0.21170992   0.20790993

