%chk=mol_4283.chk
# wB97XD/Def2SVP opt freq pop=full gfinput

C 5 H 10 N 2

1 2
C    1.85449922   0.16165994  -0.76647973
N    1.80442929  -0.02801999   0.67453974
C    0.52649981   0.04515998  -0.04787998
C   -0.34849986   1.24167955   0.17179993
C   -1.73399937   0.70444971  -0.16450994
N   -1.66065943  -0.71116972   0.20889993
C   -0.33972988  -1.17521966  -0.23122992
H    2.18156934   1.13764966  -1.10151958
H    2.21796918  -0.67436975  -1.35019946
H    2.01017928  -0.99144965   0.94199967
H   -0.30604988   1.56363940   1.21944952
H   -0.08542997   2.08762932  -0.47114980
H   -2.52227902   1.22965956   0.38167986
H   -1.93317926   0.79737973  -1.23908961
H   -2.39856911  -1.24578965  -0.24290991
H   -0.37209985  -1.46562946  -1.28855944
H   -0.01262000  -2.03101921   0.36774984

