%chk=mol_3333.chk
# wB97XD/Def2SVP opt freq pop=full gfinput

C 5 H 10 O 2

1 2
C    1.54196942  -0.63768971  -0.95415962
O    2.24508905  -0.08516997   0.14978994
C    2.99577904   1.13803959  -0.07824998
C    4.22082853   0.87620962  -0.94657964
C    2.19700909   2.40804911  -0.44206983
O    2.84302902   3.16791892   0.61125982
C    3.33382869   1.93766928   1.20207953
H    0.88784969  -1.43119943  -0.58362979
H    2.24465919  -1.07229960  -1.67015946
H    0.92714965   0.12192995  -1.44509947
H    4.84514809   1.77151942  -1.04570961
H    3.93222833   0.56929976  -1.95687926
H    4.84091806   0.08344997  -0.51401985
H    1.11535954   2.35584927  -0.27941990
H    2.39643931   2.83310914  -1.42996943
H    4.39331818   2.00823927   1.46427941
H    2.75681901   1.66993940   2.09331918

