%chk=mol_4643.chk
# wB97XD/Def2SVP opt pop=full gfinput

C 4 H 7 N 1 O 2

1 2
C    2.112733  -1.535346   1.320673
C    4.442935  -0.071791   0.509149
C    3.879003   2.693011   0.009883
O    1.789816   3.650157   0.292681
N    5.978678   4.011378  -0.780967
C    5.957418   6.519857  -1.385358
O    7.845633   7.632528  -2.128455
H    2.588944  -3.519350   1.659709
H    0.645455  -1.462176  -0.136684
H    1.314040  -0.755324   3.063208
H    5.215814  -0.910054  -1.219554
H    5.884588  -0.190201   1.991904
H    7.660496   3.135245  -0.994752
H    4.107773   7.451266  -1.153848

