%chk=mol_5356.chk
# wB97XD/Def2SVP opt freq pop=full gfinput

C 4 H 8 N 2 O 1

1 2
C    1.95298922  -0.31618986  -1.20696962
O    3.19817877   0.19295992  -0.74811971
C    3.22191882   1.48244941  -0.25617990
C    2.17356920   2.31437898  -0.14370994
C    4.58699846   1.97661924   0.16966994
N    4.81949854   3.15862870   0.81045967
N    5.64381790   1.25021946  -0.04981998
H    2.12072921  -1.33192956  -1.57711947
H    1.56428945   0.28335992  -2.03662920
H    1.22750962  -0.37164986  -0.38886985
H    1.16950965   2.03248930  -0.43460986
H    2.28523898   3.32865882   0.22367992
H    4.15351820   3.39102888   1.53505933
H    5.77527761   3.17471886   1.15409958
H    5.33455801   0.39162984  -0.52896982

