%chk=mol_4500.chk
# wB97XD/Def2SVP opt freq pop=full gfinput

C 4 H 10 N 2 O 1

1 2
C    2.46971893  -1.20475948   1.44691944
C    1.89920938  -0.29902989   0.36984986
C    2.56557918   1.06512964   0.41996983
N    2.11318922   2.03217912   1.28919947
C    0.76177967   2.13941908   1.77132940
N    3.58616877   1.25105953  -0.36784986
O    4.10559845   2.54888916  -0.21815991
H    2.00242925  -2.19283915   1.40070951
H    2.29699922  -0.78927970   2.44446921
H    3.54985881  -1.33011949   1.32131958
H    0.81666970  -0.19803992   0.49104983
H    2.07396913  -0.74454969  -0.61678976
H    2.58231902   2.91558886   1.10109961
H    0.48558980   1.26565957   2.36860919
H    0.05908998   2.24333930   0.93885964
H    0.66674978   3.02298880   2.40992904
H    4.87682819   2.52498913  -0.81400967

