%chk=mol_6097.chk
# wB97XD/Def2SVP opt freq pop=full gfinput

C 5 H 7 N 1 O 1

1 2
O    2.92859912  -0.92613965  -0.70674974
C    2.37535930   0.08967996   0.11225995
C    3.30570889   1.25269961   0.10299996
C    3.32594895   2.20988917  -1.06023955
C    2.77376914   2.65840912   0.27220988
C    3.52158856   3.59358859   1.06617951
N    4.11759853   4.34787846   1.71265936
H    2.32790899  -1.68902934  -0.66030979
H    2.26485896  -0.29711992   1.13001966
H    1.38552952   0.35100988  -0.27599990
H    4.26145792   0.99663961   0.54916978
H    2.62913918   2.04419923  -1.87442923
H    4.29206848   2.58311892  -1.38405943
H    1.69740927   2.78408885   0.32789987

