%chk=mol_3640.chk
# wB97XD/Def2SVP opt freq pop=full gfinput

C 6 H 10 O 1

1 2
O    2.21778917  -0.33688986   1.39380956
C    2.47268915  -0.00954000   0.03761999
C    2.97681880   1.38689959  -0.02680999
C    4.14496851   1.80771935  -0.52949983
C    4.31484842   3.28278875  -0.38033986
C    2.90795875   3.75161862  -0.01560999
C    2.17830920   2.52489901   0.53103977
H    1.94418931  -1.26847947   1.40746951
H    1.54288948  -0.10695995  -0.53129983
H    3.20461893  -0.71887970  -0.36197984
H    4.90311861   1.16566968  -0.95789963
H    5.03316784   3.50398874   0.41565984
H    4.65766811   3.74960852  -1.30825949
H    2.39479899   4.11576843  -0.91529965
H    2.92173886   4.57724810   0.70320976
H    1.13817954   2.50754905   0.19143993
H    2.19700909   2.50809908   1.62591946

