%chk=mol_6740.chk
# wB97XD/Def2SVP opt freq pop=full gfinput

C 5 H 8 N 2

1 2
C    0.92933965  -0.05742998  -0.03275999
C    2.41282916   0.05598998  -0.02672999
C    3.10052896   1.20810962  -0.01102000
C    4.59687805   1.23206961   0.03484999
N    5.18134785  -0.06816997  -0.28165987
N    4.54517841  -1.23404956  -0.00329000
C    3.24847889  -1.16856956   0.06112998
H    0.60157973  -1.10172963  -0.04573998
H    0.50765979   0.43322983  -0.91589963
H    0.50623983   0.41048986   0.86275971
H    2.58407903   2.16203904  -0.01709999
H    4.96804810   1.96285927  -0.69216979
H    4.91769791   1.55903947   1.03054965
H    6.16230774  -0.10951996  -0.00574000
H    2.69718909  -2.10868931   0.22721991

