%chk=mol_6965.chk
# wB97XD/Def2SVP opt freq pop=full gfinput

C 5 H 8 N 2

1 2
C    3.12852883  -1.22397959  -0.52634978
C    2.44963932   0.00438000   0.06224998
C    3.36447883   1.21957958   0.05968998
C    2.74027896   2.36924911   0.77572972
N    2.52648902   3.39406872   0.01771999
N    2.98495889   3.07737875  -1.29607952
C    3.45677876   1.87372935  -1.27691960
H    2.45336914  -2.08460927  -0.48434982
H    4.03455877  -1.47711945   0.03346999
H    3.40400887  -1.06308961  -1.57314944
H    2.13966918  -0.22301991   1.08966959
H    1.53154945   0.20825993  -0.50348979
H    4.35587835   1.00864959   0.46751985
H    2.50294900   2.32630897   1.84683931
H    3.89699841   1.36586952  -2.14537907

