%chk=mol_2219.chk
# wB97XD/Def2SVP opt pop=full gfinput

C 5 H 8 O 2

1 2
C   -1.916749   0.000113  -2.235867
C   -1.064577   1.940257  -0.198138
C   -2.112808  -0.000378   1.743121
C   -1.064407  -1.939879  -0.198100
O    1.643684  -2.282109  -0.046960
C    3.093463  -0.000019  -0.234534
O    1.643929   2.281901  -0.046752
H   -3.940552   0.000076  -2.672432
H   -0.839171   0.000038  -3.998150
H   -2.038164   3.761670  -0.240638
H   -1.200997  -0.002211   3.597056
H   -4.168226  -0.000132   1.981624
H   -2.038429  -3.762067  -0.240940
H    4.067144  -0.000057  -2.058252
H    4.507375  -0.000208   1.273241

