%chk=mol_3098.chk
# wB97XD/Def2SVP opt freq pop=full gfinput

C 7 H 10

1 2
C    1.08244967  -0.04370999   0.52845979
C    2.51999903   0.00000000   0.00000000
C    2.63149881  -0.60976976  -1.41273952
C    2.31348896  -2.08124924  -1.45695949
C    1.33088946  -2.61580896  -2.19293904
C    3.00201893   1.36116946   0.00000000
C    3.39929867   2.48306894   0.00000000
H    1.01661968   0.41741985   1.52079940
H    0.72153974  -1.07279956   0.62163979
H    0.39697984   0.49859983  -0.13293995
H    3.14402890  -0.59038979   0.68413973
H    3.65760851  -0.48492980  -1.78435934
H    1.98798919  -0.05623998  -2.10992908
H    2.93944907  -2.73772907  -0.85551965
H    0.68454975  -2.00401926  -2.81476879
H    1.15343964  -3.68700862  -2.18824935
H    3.75451851   3.48790860   0.00086000

