%chk=mol_5293.chk
# wB97XD/Def2SVP opt freq pop=full gfinput

C 5 H 8 N 2

1 2
C    0.99745959   0.02318999   0.53890979
C    2.32473898  -0.01411999  -0.13594995
C    2.62570882   0.94703966  -1.26671958
C    4.02337837   1.29102957  -1.61801934
C    4.52858829  -0.08177997  -1.88584924
N    3.63853860  -1.01516962  -1.77563930
N    2.39278913  -0.48860982  -1.51487947
H    0.98281962   0.81671971   1.29281950
H    0.80376971  -0.92846966   1.04429960
H    0.17769994   0.20781992  -0.16382994
H    3.11369896  -0.31177989   0.54462975
H    1.87028933   1.62878931  -1.62635934
H    4.57466841   1.74949932  -0.79421973
H    4.10497856   1.90041924  -2.52083898
H    5.58314800  -0.26401991  -2.13256907

