%chk=mol_2281.chk
# wB97XD/Def2SVP opt pop=full gfinput

C 6 H 8 O 1

1 2
C    1.796619  -0.111003   0.480557
C    4.553503   0.058525  -0.000038
C    5.965223   2.130232  -0.331099
C    8.606380   1.478900  -0.778435
C   10.055554  -0.049492   1.135234
C    8.508945  -1.401988  -0.821823
O    5.938162  -2.208410  -0.138630
H    1.119020  -2.044646   0.206075
H    0.748180   1.111858  -0.813943
H    1.366574   0.448923   2.422062
H    5.269256   4.049815  -0.284139
H    9.594404   2.428619  -2.294581
H   12.093284  -0.122057   0.951156
H    9.401784  -0.086398   3.076040
H    9.463446  -2.391845  -2.336438

