%chk=mol_6301.chk
# wB97XD/Def2SVP opt freq pop=full gfinput

C 4 H 5 N 1 O 2

1 2
O    2.32151890   3.71584868   0.95813966
C    2.74253893   3.72248864  -0.19022994
N    3.89978838   3.12195897  -0.64011973
C    4.74660826   2.41967916   0.18027993
C    5.86358738   1.84516931  -0.27617991
C    6.73433733   1.10306966   0.65472972
O    7.76395702   0.56692982   0.26305988
H    2.21002913   4.23341846  -1.00932968
H    4.12376833   3.21095872  -1.62476945
H    4.44984818   2.36063910   1.22729957
H    6.18720722   1.88439929  -1.30785954
H    6.41015768   1.05923963   1.70769942

