%chk=mol_6075.chk
# wB97XD/Def2SVP opt freq pop=full gfinput

C 4 H 6 N 2 O 1

1 2
O    1.74083936   0.23672991   0.98391962
C    2.62135887  -0.00003000   0.17378993
N    2.74999905  -1.20394957  -0.51452982
C    4.03864861  -1.32876945  -1.13770950
C    4.63304806   0.03872999  -0.96174961
C    3.95380855   1.25493956  -1.50176942
N    3.71595860   0.81934971  -0.16149995
H    2.14204907  -1.97284937  -0.26811990
H    4.61364841  -2.09269929  -0.60730976
H    3.91128850  -1.60565937  -2.18704915
H    5.65433788   0.06817998  -0.61606973
H    4.50172853   2.18497920  -1.55718946
H    3.10939884   1.15543962  -2.17106938

