%chk=mol_6609.chk
# wB97XD/Def2SVP opt pop=full gfinput

C 3 H 7 N 1 O 2 S 1

1 2
C    8.239036  -2.016489   1.133080
N    6.793036  -0.354532  -0.549495
S    6.592083   2.726327   0.311408
O    4.922283   3.871085  -1.526559
O    5.935649   2.732752   2.966133
C    9.601434   3.973074  -0.025795
C   10.838354   3.758930  -2.224586
H    8.207062  -3.930952   0.355665
H    7.391078  -2.088714   3.013584
H   10.207602  -1.410114   1.259087
H    5.008077  -0.990084  -0.920618
H   10.394287   4.927197   1.594116
H    9.999958   2.812593  -3.843514
H   12.715665   4.549176  -2.449822

