%chk=mol_4772.chk
# wB97XD/Def2SVP opt freq pop=full gfinput

C 5 H 6 N 2

1 2
C    2.12383914   0.24548991   0.86320966
C    2.48893905   0.04908998  -0.63325977
C    2.69464898   1.48892939  -0.58102977
C    2.64350915   2.72593880  -1.10493958
C    2.52044916   3.49573874   0.09547997
N    2.44853902   2.74130893   1.21557951
N    2.76138902   1.52582943   0.75804973
H    2.62336898  -0.42150986   1.57305944
H    1.06485963   0.31534988   1.13856959
H    1.74088943  -0.30040988  -1.34742951
H    3.40756869  -0.52954984  -0.78664970
H    2.55088925   3.05587888  -2.12613916
H    2.38385916   4.56689787   0.18429993

