%chk=mol_3014.chk
# wB97XD/Def2SVP opt freq pop=full gfinput

C 5 H 12 O 2

1 2
C    1.50451946  -0.69769973  -0.06885997
C    3.01093888  -0.49517983  -0.03658998
C    3.37999868   0.98246962  -0.19501993
C    4.89350796   1.20542955  -0.14391994
O    5.54188776   0.51637983  -1.22048962
C    5.25489807   2.69175887  -0.24603990
O    6.67239761   2.84163880  -0.19824992
H    1.26211953  -1.75816929   0.05077998
H    1.08323956  -0.35832986  -1.02082968
H    1.01592958  -0.14432995   0.73994970
H    3.46660852  -1.08716965  -0.83776969
H    3.40435886  -0.87512964   0.91292965
H    2.89642882   1.56719947   0.59717977
H    2.98717904   1.34127939  -1.15489960
H    5.31062794   0.79500967   0.78338969
H    5.08580828   0.75574970  -2.04641938
H    4.81746817   3.26872873   0.57374984
H    4.91619825   3.11220884  -1.19801950
H    7.03835726   2.07048917  -0.67552978

