%chk=mol_4464.chk
# wB97XD/Def2SVP opt pop=full gfinput

C 5 H 9 N 1 O 1

1 2
C    2.295526  -0.070997  -1.735033
C    3.813543  -0.983886   0.488003
C    3.710439  -3.403095   1.238111
N    5.344731   0.672686   1.798547
C    5.710979   3.220755   1.310733
C    7.538042   4.415459   3.141103
O    4.750034   4.448963  -0.402153
H    3.535507   0.650425  -3.225574
H    0.973436   1.413723  -1.162238
H    1.168739  -1.594702  -2.570387
H    2.528680  -4.765398   0.257494
H    4.784201  -4.111629   2.833984
H    6.317751  -0.056125   3.277919
H    7.059941   3.892042   5.082475
H    7.433125   6.473389   2.978908
H    9.459383   3.796932   2.700740

