%chk=mol_1412.chk
# wB97XD/Def2SVP opt pop=full gfinput

C 5 H 14 N 2

1 2
C    4.537516  -3.130672   0.211290
C    7.031236  -1.879389  -0.554899
C    7.514269  -2.336949  -3.368286
N    6.866282   0.821369   0.074663
C    9.277894   2.163888  -0.266621
C    9.071630   4.947114   0.574647
N    8.003898   5.218781   3.123264
H    4.175047  -2.896875   2.237285
H    4.588066  -5.163563  -0.179524
H    2.934083  -2.325648  -0.823505
H    8.548838  -2.763139   0.546509
H    6.121295  -1.355463  -4.545604
H    7.401944  -4.357217  -3.809650
H    9.399423  -1.699733  -3.932671
H    6.417472   0.981845   1.947646
H    9.859230   2.146086  -2.252232
H   10.759155   1.235956   0.848317
H    7.877040   5.989789  -0.756004
H   10.951019   5.810058   0.530578
H    6.142215   4.717323   3.031744
H    8.000628   7.089988   3.587759

