%chk=mol_3243.chk
# wB97XD/Def2SVP opt freq pop=full gfinput

C 5 H 8 O 2

1 2
C    0.88833964  -0.39582986   0.06698997
C    2.34293914   0.05790998   0.02100999
O    3.07316899  -0.82311970  -0.82556969
C    2.60796905   1.45037937  -0.47381982
C    1.69773936   2.34486914  -0.88600969
C    2.12020922   3.68385863  -1.34471953
O    1.30039954   4.50703859  -1.73314941
H    0.29233989   0.23030992   0.73853976
H    0.82777971  -1.43210948   0.41809985
H    0.43200982  -0.38076985  -0.92940968
H    2.76865888  -0.03445999   1.02630961
H    2.66447902  -0.78587973  -1.70740938
H    3.66379881   1.72040927  -0.47527981
H    0.63128978   2.15577936  -0.91239971
H    3.20189881   3.89534855  -1.31882954

