%chk=mol_4099.chk
# wB97XD/Def2SVP opt freq pop=full gfinput

C 5 H 9 N 1 O 1

1 2
C    0.98296964   0.10241996   0.21918991
C    2.46064925  -0.10027996  -0.09361997
N    2.75781894  -1.48318934  -0.52492982
C    2.77355886  -1.52265942  -1.99769926
C    3.16186881  -0.14040995  -2.39219904
O    2.11432910   0.83553970  -2.39888906
C    2.94173884   0.74725974  -1.23024952
H    0.78664970   1.14736950   0.48218980
H    0.67352974  -0.52439982   1.06231964
H    0.34372988  -0.14619994  -0.63542980
H    3.04897904   0.11437996   0.80512971
H    2.05967927  -2.13156915  -0.16755994
H    3.49596858  -2.26544929  -2.34703898
H    1.78272927  -1.77669930  -2.38998914
H    4.02548838  -0.02990999  -3.02523875
H    3.63884878   1.53332937  -0.99293959

