%chk=mol_6734.chk
# wB97XD/Def2SVP opt freq pop=full gfinput

C 5 H 8 N 2

1 2
C    0.94921958   0.03545999   0.02755999
C    2.43287921   0.00294000  -0.01642999
C    3.29016876   1.08533955  -0.11092996
N    4.56916809   0.61667973  -0.12684995
N    5.71816826   1.41990948  -0.19142993
C    4.56913805  -0.74238974  -0.05563998
C    3.25629878  -1.15856957   0.01884999
H    0.57459980   1.06351960   0.05314998
H    0.58215976  -0.48191983   0.91922969
H    0.53194982  -0.45755982  -0.85576969
H    3.08306885   2.14483929  -0.17484994
H    5.57584763   2.30351925   0.29170990
H    6.50350761   0.97799963   0.28003988
H    5.49009800  -1.30819952  -0.06981997
H    2.92561889  -2.18701911   0.08289997

