%chk=mol_6012.chk
# wB97XD/Def2SVP opt pop=full gfinput

C 4 H 6 N 2 O 1

1 2
O    1.780387  -0.290262  -0.368345
C    4.061003   0.003477  -0.109869
C    5.304707   2.497216   0.402946
C    8.067789   2.346189  -0.336636
N    9.149449   0.072055   0.786107
N    8.163126  -2.213285   0.181281
C    5.742198  -2.282543  -0.206831
H    4.353438   3.969842  -0.694210
H    5.097461   2.917397   2.419114
H    9.071650   4.018994   0.350714
H    8.282518   2.282902  -2.395984
H   11.072246   0.046809   0.568354
H    4.781139  -4.069298  -0.667565

