%chk=mol_1521.chk
# wB97XD/Def2SVP opt freq pop=full gfinput

C 7 H 12

1 2
C    0.97107965   0.00857000  -0.03976998
C    2.49469900  -0.00135000  -0.00908000
C    3.06627870  -1.26519954   0.65297973
C    3.36481881  -0.88093966   2.11077929
C    4.60105801  -1.58258939   2.65244889
C    3.51941872   0.60699975   2.02090931
C    3.03891873   1.08582962   0.86813962
H    0.59485978  -0.81213969  -0.65946978
H    0.59597975   0.94756961  -0.46093982
H    0.54209977  -0.10446996   0.96216965
H    2.88384891   0.09503996  -1.02879965
H    3.99065852  -1.55397940   0.13412994
H    2.38715911  -2.12296915   0.59135973
H    2.50432897  -1.11228955   2.75030899
H    5.49390793  -1.34649956   2.06260920
H    4.46384859  -2.66902924   2.63902903
H    4.79666853  -1.27995956   3.68709874
H    3.92460847   1.21899962   2.81580901
H    3.01416874   2.13422918   0.60255980

