%chk=mol_0454.chk
# wB97XD/Def2SVP opt freq pop=full gfinput

C 5 H 11 N 1

1 2
C    1.17534959   0.09562996  -0.15352994
N    2.62966895   0.06090998  -0.05154998
C    3.28326869  -0.63713980  -1.14686954
C    3.39323878   0.87495965  -1.01189959
C    2.73047876   1.73138940  -2.05554914
C    4.68451834   1.44766951  -0.48144981
H    0.78826970   0.96271968   0.38981986
H    0.76437974  -0.79990971   0.32400987
H    0.77583969   0.12420996  -1.17138958
H    2.66964912  -1.05719960  -1.93513930
H    4.13674831  -1.24629951  -0.87133968
H    1.96413922   1.19907951  -2.62809896
H    3.47286868   2.08180928  -2.78244901
H    2.27072906   2.61139894  -1.59403944
H    5.12363815   0.82378972   0.30528989
H    4.51354837   2.44495893  -0.06225998
H    5.42010784   1.53487945  -1.28785956

