%chk=mol_1395.chk
# wB97XD/Def2SVP opt freq pop=full gfinput

C 6 H 11 N 1

1 2
C    0.97626966  -0.10708997  -0.03858998
C    2.49089909  -0.00628000   0.09656996
C    3.02738905   1.43281937   0.00000000
N    2.55828905   2.26610899   1.10428953
C    4.47138834   1.43281937   0.00000000
C    5.66154814   1.43281937   0.00000000
C    7.10554743   1.43281937   0.00000000
H    0.67278975  -1.15843952  -0.06129998
H    0.63399976   0.36388987  -0.96403968
H    0.46480983   0.36570984   0.80350971
H    2.94502878  -0.61504978  -0.69838971
H    2.79793882  -0.46889985   1.04537964
H    2.67002916   1.87975931  -0.93521965
H    2.86804891   1.85446930   1.98295927
H    1.54238951   2.26929903   1.12837958
H    7.49958754   2.45366907  -0.01167999
H    7.49956703   0.91220969  -0.87821966
H    7.49950695   0.93249965   0.88995969

