%chk=mol_6343.chk
# wB97XD/Def2SVP opt freq pop=full gfinput

C 4 H 6 N 2 O 1

1 2
O    1.02997959   0.09566996  -0.33721989
N    2.36708903  -0.02144999   0.06581997
C    2.94538879   1.13609958   0.09554996
C    4.40287828   1.28579950   0.51770979
N    4.59485817   2.72542906   0.32650986
C    3.39518881   3.31197882  -0.01394000
C    2.37481928   2.47196913  -0.21761991
H    0.72855973  -0.83195972  -0.33251986
H    5.05947781   0.70598978  -0.13548996
H    4.52619791   0.99803966   1.56541932
H    5.12389803   3.21404886   1.04462957
H    3.35306859   4.39220810  -0.09017996
H    1.35729945   2.67560887  -0.49032983

