%chk=mol_1055.chk
# wB97XD/Def2SVP opt freq pop=full gfinput

C 4 H 5 N 1 O 1

1 2
C    1.22965956  -0.23648991  -0.69991976
N    2.47411919  -0.22669990  -0.36206988
O    2.92659879   1.10540962  -0.37274987
C    4.30855846   1.12712955   0.00000000
C    4.79057837   2.48830891   0.00000000
C    5.18786812   3.61019874   0.00000000
H    0.68239975  -1.19176948  -0.75228971
H    0.66550976   0.67822969  -0.94617963
H    4.87798834   0.51863980  -0.71172971
H    4.41407824   0.68332976   0.99649960
H    5.53935814   4.61617851  -0.00127000

