%chk=mol_6736.chk
# wB97XD/Def2SVP opt pop=full gfinput

C 5 H 8 N 2

1 2
C    1.702530  -0.172948  -0.277998
C    4.192603   0.090556   0.079463
C    5.539619   2.550053   0.489911
C    8.291571   2.350309  -0.362525
N    9.408002   0.059016   0.712238
N    8.289794  -2.209600   0.254452
C    5.849307  -2.185336   0.006406
H    0.456671   1.459492  -0.251598
H    0.828721  -2.003355  -0.586080
H    4.607587   4.086136  -0.541898
H    5.470474   3.019386   2.508838
H    9.346038   4.009167   0.284574
H    8.419070   2.291406  -2.429148
H   11.294175  -0.037624   0.314337
H    4.890007  -4.005633  -0.333026

