%chk=mol_3789.chk
# wB97XD/Def2SVP opt freq pop=full gfinput

C 5 H 8 O 2

1 2
O    0.87640971  -0.07879997   0.02402999
C    2.29825902  -0.07173997   0.00595000
C    2.81486893   1.36124945  -0.00365000
O    4.24014807   1.34673953  -0.02311999
C    4.77480841   2.66847897  -0.03446999
C    6.23982763   2.59252906  -0.05425998
C    7.43784714   2.53049898  -0.07052997
H    0.60185975  -1.01225960   0.02841999
H    2.64763904  -0.60978979  -0.88170964
H    2.67012906  -0.60609972   0.88667971
H    2.45463920   1.89142931   0.88613963
H    2.43031931   1.88824928  -0.88512969
H    4.44028854   3.20691895   0.85924971
H    4.41603851   3.20137858  -0.92208964
H    8.50219727   2.46660900  -0.08498997

