%chk=mol_4240.chk
# wB97XD/Def2SVP opt freq pop=full gfinput

C 5 H 7 N 1 O 1

1 2
C    0.65113974   0.20191993   0.30087990
C    1.79604936   0.55468976   0.89842969
C    2.87841892   1.20136952   0.11473996
C    2.71975899   2.71906900  -0.15284994
N    4.07711840   2.89234877   0.38237986
C    4.08416843   1.66434932   0.97545958
O    4.77008820   1.24601960   1.87651932
H   -0.13810995  -0.28585991   0.86632967
H    0.47087982   0.37653989  -0.75555974
H    1.95585918   0.35332987   1.95525932
H    3.19567871   0.61066979  -0.75396973
H    1.97090924   3.25541878   0.43962985
H    2.63963914   3.00191879  -1.20629954
H    4.44965839   3.66137862   0.92294967

