%chk=mol_5590.chk
# wB97XD/Def2SVP opt freq pop=full gfinput

C 4 H 8 N 2 O 1

1 2
N    0.94244963   0.01673999   0.38156983
C    2.38711905   0.01229000   0.11283995
C    2.83180904   1.20287955  -0.73349971
O    4.23358822   1.05623960  -0.96360964
N    4.52012825   0.00148000  -1.85104930
C    3.85358858  -1.09011960  -1.62183940
C    2.81576896  -1.28969955  -0.55492979
H    0.68264973   0.87585968   0.86470968
H    0.70634979  -0.74781972   1.01210964
H    2.90679884   0.07524997   1.07699955
H    2.67603898   2.14227939  -0.19288993
H    2.29801917   1.27203953  -1.69064939
H    4.06829834  -1.96121919  -2.26266909
H    1.96953928  -1.79027927  -1.03913963
H    3.21108890  -1.99446929   0.18346994

