%chk=mol_2343.chk
# wB97XD/Def2SVP opt pop=full gfinput

C 7 H 4

1 2
C    1.889726   0.000000   0.000000
C    4.138803   0.000000   0.000000
C    6.867567   0.000000   0.000000
C    7.812279  -1.336754  -2.183295
C    8.590940  -2.438521  -3.982787
C    7.778453   2.572238   0.000000
C    8.529203   4.692322   0.000000
H   -0.124457   0.005329  -0.009203
H    7.540442  -0.952101   1.713944
H    9.282788  -3.417456  -5.599391
H    9.196635   6.593066  -0.009203

