%chk=mol_4749.chk
# wB97XD/Def2SVP opt pop=full gfinput

C 4 H 10 N 2 O 1

1 2
C    4.985173  -1.260202  -2.729861
C    4.853591  -0.226824  -0.057353
N    6.026450   2.227798   0.127897
C    8.581227   2.563149   0.492330
O   10.079176   0.832046   0.862660
C    9.385382   5.345941   0.490346
N    7.617108   6.901847  -1.019129
H    4.060927  -3.106804  -2.835591
H    6.946596  -1.480090  -3.350862
H    4.043447   0.014721  -4.060436
H    5.789818  -1.528977   1.250432
H    2.882683  -0.014249   0.531599
H    5.048951   3.823332  -0.318438
H   11.285482   5.493434  -0.311351
H    9.406924   6.015131   2.446194
H    7.817381   6.389731  -2.870589
H    8.213581   8.733898  -0.929537

