%chk=mol_4425.chk
# wB97XD/Def2SVP opt pop=full gfinput

C 5 H 9 N 1 O 1

1 2
C    1.653284  -0.295837   2.189210
C    3.091838  -0.124816   0.114820
C    5.100673   1.850439  -0.291452
C    7.722177   0.695192  -0.654318
O    7.807045  -0.618281  -3.014964
N   10.227103  -1.660238  -3.311934
C   10.257773  -2.972237  -5.364800
H    0.233230  -1.766875   2.358378
H    1.853254   1.012024   3.756662
H    2.813141  -1.480619  -1.408640
H    5.156231   3.154841   1.316875
H    4.583153   2.949314  -1.969926
H    8.175900  -0.612082   0.888096
H    9.137582   2.207502  -0.687123
H   11.997361  -3.953779  -5.943699
H    8.595382  -3.177253  -6.606029

