%chk=mol_5166.chk
# wB97XD/Def2SVP opt freq pop=full gfinput

C 4 H 10 N 2 O 1

1 2
C    1.14311957   0.72526973   1.36762953
N    1.64502943   2.01059914   0.94424963
C    2.92464900   2.17444921   0.45336983
C    3.17867875   3.50522876  -0.28545991
O    2.19427919   4.47214842   0.06327998
N    3.82144856   1.25489950   0.60720974
C    5.15016794   1.46627939   0.05593998
H    0.10024996   0.82179970   1.68371928
H    1.71828938   0.34314987   2.21696901
H    1.18577957  -0.00049000   0.54939979
H    0.95589966   2.64275885   0.54142976
H    3.11695886   3.32302880  -1.36200941
H    4.16281843   3.91047859  -0.04066999
H    2.27446914   4.58797836   1.02821958
H    5.71597767   0.53208977   0.12708995
H    5.69701767   2.22413898   0.62558973
H    5.11932802   1.74436927  -1.00237966

