%chk=mol_1620.chk
# wB97XD/Def2SVP opt freq pop=full gfinput

C 6 H 11 N 1

1 2
C    1.15213966   0.03744999  -0.07667997
N    2.60612893  -0.07882997  -0.04606998
C    3.16052890  -0.75493973  -1.20566952
C    3.27639890   0.75069970  -1.05294955
C    4.57302809   1.44685948  -0.65064979
C    5.92776823   1.02765965  -1.17464960
C    5.33584785   2.33205914  -1.61060941
H    0.83997965   0.90081966   0.52049983
H    0.70377970  -0.85508972   0.37239987
H    0.72741973   0.15394993  -1.08162951
H    2.48727894  -1.14551961  -1.95777917
H    4.03825855  -1.36057949  -1.01951957
H    2.62997913   1.34810948  -1.69331944
H    4.56693840   1.79850936   0.38299987
H    5.97585773   0.22529991  -1.90116930
H    6.76127720   1.04816961  -0.48181984
H    5.76906776   3.24488878  -1.21882951
H    4.98074818   2.41070914  -2.63118911

