%chk=mol_7117.chk
# wB97XD/Def2SVP opt pop=full gfinput

C 6 H 13 N 1

1 2
C    1.379840   0.386600  -0.244814
C    4.097399  -0.444634  -0.154844
C    4.520981  -3.242449  -0.398543
C    5.978281   1.250507   0.117106
C    8.774376   0.714600   0.156110
C    9.959783   1.458283   2.692520
N   12.681423   0.981524   2.698416
H    1.181079   2.440336  -0.082052
H    0.316586  -0.470731   1.309883
H    0.514365  -0.190220  -2.033515
H    2.788858  -4.295971   0.017877
H    5.956114  -3.913245   0.930917
H    5.103300  -3.715410  -2.325875
H    5.494625   3.246720   0.271251
H    9.656746   1.803952  -1.372149
H    9.171899  -1.276737  -0.246042
H    9.079322   0.391702   4.234801
H    9.638737   3.470577   3.064248
H   13.002129  -0.902533   2.455661
H   13.396231   1.429011   4.429915

