%chk=mol_3821.chk
# wB97XD/Def2SVP opt freq pop=full gfinput

C 5 H 9 N 1 O 1

1 2
C   -1.60835934   0.57937974   0.32225987
N   -1.54909945  -0.85008973  -0.28765988
C   -0.13860995  -0.78419971   0.16337994
C    1.15151954  -1.00044966  -0.58485979
C    2.00098920   0.18626992  -0.01543999
O    1.03309965   1.24577951   0.26028991
C   -0.20112993   0.72249973  -0.24377991
H   -2.37570906   1.21355963  -0.12974995
H   -1.70892942   0.60518980   1.41401947
H   -1.66838932  -0.86900967  -1.30179954
H   -0.02329999  -0.99979961   1.23718953
H    1.62420940  -1.96206927  -0.36658984
H    1.03623962  -0.91380966  -1.67217934
H    2.47790909  -0.08181997   0.93177968
H    2.74717879   0.53940982  -0.73172975
H   -0.25649989   0.94826967  -1.32381952

