%chk=mol_5839.chk
# wB97XD/Def2SVP opt pop=full gfinput

C 4 H 6 N 2 O 1

1 2
N    1.883641   3.277484  -2.893454
C    4.250920   3.783383  -2.658297
N    5.448307   4.011775  -0.394046
O    7.975344   3.237025  -0.498566
C    9.471988   5.294824   0.428590
C   12.153887   4.598894   0.309273
C   14.351393   4.032845   0.208664
H    1.430542   3.217637  -4.778985
H    5.483437   4.097758  -4.312374
H    4.439042   3.215312   1.038518
H    8.933908   5.710771   2.385496
H    9.130836   6.975584  -0.733592
H   16.297565   3.527155   0.114328

