%chk=mol_6722.chk
# wB97XD/Def2SVP opt freq pop=full gfinput

C 5 H 10 N 2

1 2
C    0.91032970  -0.05696998   0.29552990
C    2.40026903  -0.05148998  -0.02761999
C    2.82021904   1.26714957  -0.67552978
C    4.01688862   1.19422960  -1.61683941
N    4.61914825  -0.12117995  -1.83045924
C    3.92450857  -1.14668953  -1.51295948
N    2.70523882  -1.15898955  -0.90878963
H    0.64739978   0.77780974   0.95486963
H    0.62140977  -0.98938960   0.79424965
H    0.30626988   0.02514999  -0.61552978
H    2.96288872  -0.18574993   0.90539962
H    3.02821898   1.99339926   0.11885995
H    1.97418916   1.70026934  -1.23151946
H    4.79592800   1.87088931  -1.25373960
H    3.71802878   1.58783937  -2.59790897
H    4.31229830  -2.15760922  -1.71156943
H    2.41598916  -2.06480908  -0.55114979

