%chk=mol_4696.chk
# wB97XD/Def2SVP opt freq pop=full gfinput

C 5 H 11 N 1 O 1

1 2
C    1.06089962  -0.63413978   0.22259992
C    2.57458901  -0.48756984   0.24488990
N    2.94213891   0.89640963  -0.04895998
C    4.39712858   1.07286966   0.00803000
C    4.72837782   2.52403903  -0.31143990
C    4.84494781   2.89230895  -1.76756942
O    4.83394814   3.37229872   0.57697976
H    0.78042966  -1.67498946   0.41286984
H    0.64885974  -0.34656987  -0.75050968
H    0.59096980  -0.01234000   0.99192965
H    3.00819898  -1.15929949  -0.50474977
H    2.94987893  -0.78740972   1.23027956
H    2.51541901   1.51494944   0.64589977
H    4.91024828   0.42936984  -0.71465975
H    4.78932810   0.84505969   1.00565958
H    5.58068800   2.24592924  -2.25261927
H    5.18040848   3.92913866  -1.85840929
H    3.87212849   2.78721905  -2.25347924

