%chk=mol_3188.chk
# wB97XD/Def2SVP opt pop=full gfinput

C 6 H 12 O 1

1 2
C    4.151596  -1.198540   2.747964
C    5.058929  -0.364755   0.147720
O    3.004872  -0.505218  -1.590904
C    6.004038   2.312722   0.177181
C    8.414610   3.122395   0.010809
C   10.698949   1.441351  -0.178296
C    9.013275   5.906490   0.012737
H    5.692044  -1.173274   4.126897
H    3.380172  -3.116877   2.656445
H    2.626417   0.018406   3.440284
H    6.487732  -1.688281  -0.538100
H    1.673825   0.596076  -0.971603
H    4.526990   3.736197   0.338866
H   10.267165  -0.562401   0.057977
H   12.066487   1.936232   1.294330
H   11.609476   1.684162  -2.019758
H    7.311162   7.077705   0.126612
H   10.014679   6.423425  -1.722655
H   10.211740   6.381001   1.631136

