%chk=mol_5718.chk
# wB97XD/Def2SVP opt freq pop=full gfinput

C 4 H 8 N 2 O 1

1 2
N    2.02124929  -0.70783973  -1.02204967
C    3.12591887  -0.33502987  -0.15446994
C    3.05821872   1.12858951   0.12586996
C    4.05021858   1.98688924  -0.15395993
C    3.89698863   3.41999865   0.15969993
N    4.83678818   4.26991844  -0.10101996
O    4.41886854   5.54460812   0.29963988
H    2.05427933  -1.71220946  -1.18942952
H    2.15280914  -0.26997992  -1.93333924
H    4.07569838  -0.61779976  -0.62135977
H    3.04550886  -0.88329965   0.79006970
H    2.13985920   1.48062944   0.59130979
H    4.98295784   1.68357944  -0.61369979
H    2.94436908   3.72916865   0.62602979
H    5.18393803   6.09970760   0.05878998

