%chk=mol_5577.chk
# wB97XD/Def2SVP opt pop=full gfinput

C 5 H 11 N 1 O 1

1 2
N    1.839100  -0.153276   0.211366
C    4.597061  -0.082505  -0.179486
C    5.319674  -0.032428  -2.964697
O    3.915815   1.908397  -4.203205
C    5.735281   1.980509   1.569966
C    7.752828   0.016403   2.341257
C    5.863594  -2.068192   1.561122
H    1.289303   0.001228   2.054510
H    1.017145  -1.777231  -0.429762
H    4.857390  -1.828820  -3.880269
H    7.334008   0.334859  -3.242959
H    2.306713   1.983910  -3.293736
H    4.553768   2.583917   3.163779
H    6.472803   3.668034   0.630280
H    9.462729   0.072717   1.173633
H    8.301132   0.029215   4.332594
H    6.705580  -3.701785   0.613764
H    4.716322  -2.749344   3.148284

