%chk=mol_3687.chk
# wB97XD/Def2SVP opt freq pop=full gfinput

C 7 H 10

1 2
C    1.00095963  -0.05363998   0.00345000
C    2.51999903   0.00000000   0.00000000
C    3.00201893   1.36116946   0.00000000
C    3.39929867   2.48306894   0.00000000
C    3.86862850   3.80841851   0.00000000
C    5.34601784   4.07604837  -0.00582000
C    2.98527884   4.81859779   0.01139000
H    0.65720975  -1.09290969   0.00279000
H    0.58494979   0.44268984  -0.88021970
H    0.58909976   0.44018984   0.89045966
H    2.89530897  -0.53266978  -0.88099962
H    2.89938879  -0.53418982   0.87831968
H    5.92301750   3.14618874   0.04147998
H    5.63226795   4.68520832   0.85795969
H    5.63814783   4.60140848  -0.92097962
H    1.91395926   4.63823795   0.01766999
H    3.31281877   5.85331774   0.01367999

