%chk=mol_4135.chk
# wB97XD/Def2SVP opt freq pop=full gfinput

C 5 H 5 N 1 O 1

1 2
C    1.04820967   0.01438999   0.00459000
C    2.54012895  -0.02289999   0.00254000
N    3.23619890  -1.11531961   0.00362000
C    4.54872799  -0.71790975   0.00184000
O    5.54459810  -1.41898954   0.00148000
C    4.58613825   0.75397968   0.00031000
C    3.33098865   1.20137954   0.00073000
H    0.64392978  -1.00133967  -0.00879000
H    0.69319969   0.55115980  -0.87925971
H    0.69570971   0.52681977   0.90374964
H    5.50400782   1.31298959  -0.00078000
H    2.96225905   2.21004915   0.00012000

