%chk=mol_7022.chk
# wB97XD/Def2SVP opt pop=full gfinput

C 6 H 11 N 1

1 2
C    1.799662   0.046147  -1.309958
C    4.571059   0.022374  -0.777566
C    6.077492   2.050750  -1.000950
C    8.796996   2.102642  -0.496223
C   10.581881   1.004427  -2.441564
N   10.328014   3.725444  -2.121841
C   12.462309   4.879802  -0.812185
H    1.362134  -1.288000  -2.828863
H    1.126050   1.917751  -1.881581
H    0.752659  -0.526100   0.379911
H    5.374627  -1.772374  -0.184966
H    5.247788   3.838922  -1.597556
H    9.316067   1.959306   1.481885
H    9.804220   0.237425  -4.174405
H   12.290703   0.086606  -1.787001
H   11.852532   6.639609   0.089819
H   13.938525   5.357449  -2.181576
H   13.318978   3.683927   0.648327

