%chk=mol_0469.chk
# wB97XD/Def2SVP opt pop=full gfinput

C 4 H 10 N 2

1 2
C    5.533118  -2.117022  -0.855630
N    4.476705   0.156261   0.281853
C    6.292259   2.253120   0.317568
C    6.484444   3.981785  -1.926368
C    5.304839   4.928954   0.468973
N    6.626533   6.822119   1.991223
H    4.103087  -3.610567  -0.876946
H    7.165029  -2.804732   0.214200
H    6.109919  -1.773338  -2.812517
H    3.882367  -0.246005   2.070743
H    8.041087   1.857846   1.324320
H    5.242799   3.648494  -3.521164
H    8.336924   4.673784  -2.451787
H    3.262782   5.173484   0.424130
H    8.528580   6.526906   1.994795
H    6.063224   6.713177   3.830286

