%chk=mol_0110.chk
# wB97XD/Def2SVP opt freq pop=full gfinput

C 3 H 3 N 1 O 1

1 2
N    1.02793956   0.01455999   0.00000000
C    2.38556910  -0.05731998  -0.00000000
O    2.99640870  -1.11524951   0.00000000
C    3.08546877   1.20313954  -0.00000000
C    3.66891885   2.25421929  -0.00000000
H    0.53645980   0.89585972  -0.00000000
H    0.50714982  -0.85061967   0.00000000
H    4.19722843   3.17874885  -0.00000000

