%chk=mol_1235.chk
# wB97XD/Def2SVP opt freq pop=full gfinput

C 5 H 12 N 2

1 2
C    2.96863890  -0.96632963  -1.01686966
C    2.53288913  -0.07159998   0.13588995
C    3.16239882   1.32675958   0.07130998
C    2.58686900   2.23752904   1.15555954
C    4.68136835   1.27425945   0.20142993
N    5.45080805   1.74908936  -0.81319970
N    5.27904797   0.80480969   1.24762964
H    2.44055915  -1.92435932  -0.97019964
H    4.04251862  -1.17592955  -0.97731966
H    2.74295902  -0.50225985  -1.98282933
H    2.77912903  -0.56683981   1.08189952
H    1.44080949   0.02332999   0.10364996
H    2.92081881   1.77432930  -0.90163964
H    2.73101902   1.81590939   2.15651917
H    1.51256943   2.38657904   1.00539958
H    3.07096887   3.21962881   1.13786948
H    5.07579803   2.50137901  -1.37621951
H    6.41736746   1.88090932  -0.53315979
H    4.59561825   0.47488984   1.93763924

