%chk=mol_0174.chk
# wB97XD/Def2SVP opt pop=full gfinput

C 4 H 7 N 1

1 2
C    1.875289  -0.077498  -0.025133
C    4.762110   0.000000   0.000000
N    5.767728  -1.331218  -2.198111
C    5.672996   2.572238   0.000000
C    6.423746   4.692322   0.000000
H    1.101502   0.889891   1.632988
H    1.185652  -2.027997   0.005650
H    1.098177   0.850755  -1.705176
H    5.431168  -0.972302   1.701396
H    5.187922  -0.426549  -3.795836
H    5.011629  -3.097374  -2.276685
H    7.111852   6.584297  -0.005820

