%chk=mol_6803.chk
# wB97XD/Def2SVP opt pop=full gfinput

C 5 H 6 N 2

1 2
C    1.849551  -0.008617   0.007162
C    4.663258   0.012056   0.003761
C    6.031476   2.233808   0.006538
N    8.574859   2.334341   0.006652
C    9.759604   0.093258   0.004819
N    8.645573  -2.183635   0.003231
C    6.099356  -2.164738   0.003326
H    1.106151  -1.939728  -0.022129
H    1.122403   0.973379  -1.662411
H    1.127448   0.922338   1.707764
H    5.097196   4.062685   0.008863
H   11.808483   0.125251   0.004724
H    5.228400  -4.024436   0.002891

