%chk=mol_1051.chk
# wB97XD/Def2SVP opt pop=full gfinput

C 4 H 11 N 1 O 1

1 2
C    2.284736  -0.353813   1.588183
N    4.981715  -0.075268   1.137048
C    5.620215   2.545064   0.477534
C    8.414327   2.754351  -0.274766
O    8.831012   1.372017  -2.564131
C   11.405140   1.487422  -3.320570
H    1.864687  -2.319525   2.076998
H    1.174125   0.134756  -0.088515
H    1.668042   0.825943   3.173757
H    5.514807  -1.192153  -0.347747
H    5.257483   3.783288   2.096443
H    4.453026   3.170186  -1.116790
H    9.627872   2.007399   1.230552
H    8.889744   4.745726  -0.590237
H   11.624122   0.393044  -5.059780
H   12.627357   0.667886  -1.866917
H   11.960530   3.443799  -3.697778

