%chk=mol_4852.chk
# wB97XD/Def2SVP opt freq pop=full gfinput

C 5 H 9 N 1 O 1

1 2
C    0.97531962  -0.34336987  -0.05073998
C    2.47386909  -0.06918997  -0.02734999
O    3.07576895  -0.62641972  -1.19246960
C    2.77255893   1.43281937   0.01957999
C    4.27117825   1.74258935   0.08866997
C    4.84859800   1.36342943   1.38422954
N    5.29131794   1.07544959   2.41870928
H    0.48899981   0.03488998   0.85350966
H    0.78603971  -1.41952956  -0.12630996
H    0.50210983   0.12164996  -0.92262965
H    2.91083884  -0.57409978   0.84039968
H    2.51074910  -0.42505983  -1.95870936
H    2.25574923   1.88939929   0.87298965
H    2.37883902   1.90285933  -0.89090967
H    4.41141796   2.82048893  -0.05615998
H    4.80969810   1.24556959  -0.72546971

