%chk=mol_4894.chk
# wB97XD/Def2SVP opt pop=full gfinput

C 6 H 9 N 1

1 2
C    0.750221   2.574922   1.499290
N    2.486653   0.651426   0.347388
C    0.820840  -0.749390  -1.425005
C   -0.871447   1.353781  -2.438880
C   -1.805652   2.061445   0.191524
C   -2.732015  -0.500721   1.065144
C   -1.088426  -2.192763   0.123399
H    1.441521   4.476402   1.058795
H    0.667111   2.345547   3.554594
H    3.822047   1.583307  -0.680301
H    1.804140  -1.861324  -2.857436
H    0.168564   2.874500  -3.387372
H   -2.373383   0.676446  -3.698610
H   -3.197832   3.577686   0.268209
H   -4.272180  -0.865476   2.347947
H   -1.052615  -4.198159   0.482277

