%chk=mol_4216.chk
# wB97XD/Def2SVP opt pop=full gfinput

C 6 H 11 N 1

1 2
C    3.512717   0.261557  -1.370014
C    3.440662  -0.243000   1.419222
C    0.993297   0.024869  -0.037417
C   -0.646362   2.302896   0.383066
C   -3.266883   1.336622  -0.304529
N   -3.153575  -1.344332   0.369668
C   -0.669322  -2.240440  -0.484356
H    4.128504   2.115511  -1.987141
H    4.118772  -1.263131  -2.597296
H    3.985508  -2.104588   2.078434
H    3.991064   1.272372   2.685395
H   -0.581261   2.880869   2.373326
H   -0.106278   3.913472  -0.800507
H   -4.755590   2.328880   0.726694
H   -3.615160   1.545550  -2.334927
H   -4.553900  -2.329598  -0.505804
H   -0.728546  -2.714781  -2.500051
H   -0.084527  -3.904155   0.593733

