%chk=mol_3715.chk
# wB97XD/Def2SVP opt freq pop=full gfinput

C 6 H 8 O 1

1 2
O    3.17369866   3.07922888   1.97818923
C    2.50118899   2.76592898   1.00199962
C    2.95218897   1.82278931  -0.08721996
C    4.40701866   1.37092948   0.03911998
C    5.44401836   2.48225904  -0.14899994
C    5.36666822   3.10419893  -1.48066950
C    5.30563831   3.62777877  -2.55804896
H    1.47431946   3.15392876   0.88320971
H    2.76873899   2.30694914  -1.05153966
H    2.29728913   0.94558966  -0.03312999
H    4.58758831   0.58291978  -0.70327973
H    4.56197834   0.91445965   1.02474964
H    6.44329739   2.04988933  -0.01751999
H    5.33692789   3.24999881   0.62380975
H    5.25555801   4.10181856  -3.51242876

