%chk=mol_5898.chk
# wB97XD/Def2SVP opt pop=full gfinput

C 4 H 6 N 2 O 1

1 2
N    2.038429   0.110814  -0.708326
N    4.312431   0.196399   0.474283
C    5.429731   2.363065   0.485282
O    7.696817   2.643954   1.679475
C    8.519207   5.199865   1.452292
C    6.509899   6.438316  -0.024056
C    4.694193   4.803136  -0.610022
H    1.515598  -1.740778  -0.901645
H    0.673404   0.876606   0.427286
H   10.340109   5.248733   0.475984
H    8.715322   6.024314   3.337426
H    6.532594   8.404274  -0.563479
H    2.996199   5.113599  -1.684729

