%chk=mol_3967.chk
# wB97XD/Def2SVP opt pop=full gfinput

C 4 H 5 N 1 O 2

1 2
C    1.867503  -0.021713   0.054972
C    4.674748   0.062569   0.173590
C    6.138738   2.109388   0.013606
C    8.752625   1.155681   0.042405
O   10.647341   2.451655  -0.137761
O    8.644874  -1.438724   0.205281
N    6.086884  -2.098484   0.457711
H    1.056640   1.876895  -0.080294
H    1.097988  -0.922394   1.750472
H    1.247030  -1.100520  -1.597537
H    5.641362   4.061929  -0.215013
H    5.550239  -3.570430  -0.663880

