%chk=mol_7127.chk
# wB97XD/Def2SVP opt freq pop=full gfinput

C 6 H 9 N 1

1 2
C    0.83557969  -0.17288993  -0.10519996
C    2.35543919  -0.06190998   0.01046000
C    3.03830886  -0.82594967  -1.12338960
C    2.77559900   1.38718951  -0.01002000
C    3.42150879   1.99106932   1.00034964
C    3.80268860   3.35923862   0.94749963
N    4.11594868   4.47618866   0.90881968
H    0.34010985   0.35533985   0.71705973
H    0.52024984  -1.22114956  -0.06571998
H    0.47061983   0.25250992  -1.04699957
H    2.65725899  -0.52344984   0.95941967
H    2.75897884  -0.42595983  -2.10478926
H    2.75801897  -1.88459921  -1.10008967
H    4.12886858  -0.76791972  -1.03428960
H    2.52934909   1.95542920  -0.90747964
H    3.67771864   1.44795942   1.90326917

