%chk=mol_0452.chk
# wB97XD/Def2SVP opt pop=full gfinput

C 4 H 6 N 2

1 2
C    1.627829   0.155902  -0.188330
C    4.444541  -0.056560  -0.120848
N    5.825099  -2.082629  -0.153710
N    4.545434  -4.299996  -0.257683
C    5.972404   2.193764   0.017102
C    7.240108   4.074968   0.131241
H    1.037705   2.136127  -0.215051
H    0.825243  -0.753283   1.485551
H    0.896959  -0.777849  -1.880977
H    5.807752  -5.738286  -0.542937
H    3.726653  -4.699390   1.447833
H    8.382239   5.729253   0.228336

