%chk=mol_6144.chk
# wB97XD/Def2SVP opt pop=full gfinput

C 4 H 3 N 1 O 2

1 2
O    5.044529  -2.144669   0.126479
C    4.052952  -0.054500   0.006463
C    5.466090   2.261511   0.004932
C    4.517995   4.672556  -0.123286
O    6.447727   6.361064  -0.077309
N    8.722560   5.072289   0.083753
C    8.099707   2.626682   0.130864
H    1.980131   0.140237  -0.108376
H    2.649547   5.484704  -0.247535
H    9.580647   1.222672   0.254130

