%chk=mol_6117.chk
# wB97XD/Def2SVP opt freq pop=full gfinput

C 4 H 7 N 1 O 2

1 2
O    3.17099881  -0.98384964  -0.62820977
C    2.44190907   0.01663999   0.07365997
C    3.15107870   1.36007953  -0.01914999
C    3.30136871   1.86025941  -1.43638957
C    3.08941889   3.29824877  -1.17283964
N    2.56965899   3.58873868  -0.02876999
O    2.37710905   2.36411905   0.65439975
H    2.69528890  -1.82337928  -0.49778980
H    2.34358907  -0.28538990   1.12228954
H    1.43020940   0.07756998  -0.34280989
H    4.13455868   1.30164957   0.46424982
H    2.52322912   1.51088941  -2.12113929
H    4.28727818   1.66418934  -1.86196923
H    3.32343864   4.05127859  -1.93744922

