%chk=mol_0135.chk
# wB97XD/Def2SVP opt freq pop=full gfinput

C 5 H 10

1 2
C    2.08916926  -0.31814989   1.49146938
C    2.48625898   0.04737998   0.06814998
C    3.07624888   1.43367946  -0.03606999
C    2.13176918   2.58955884   0.14038995
C    4.37853813   1.62629938  -0.30757987
H    1.71565938  -1.34681952   1.52486944
H    1.29624951   0.33563986   1.86805928
H    2.94449902  -0.24686991   2.17182922
H    1.61119950  -0.02462999  -0.58890975
H    3.20222878  -0.70037973  -0.29570988
H    1.30119956   2.51295900  -0.56878978
H    2.62490892   3.55213857  -0.03105999
H    1.72387934   2.60360909   1.15577960
H    5.05928802   0.79217970  -0.44684982
H    4.79984808   2.62292886  -0.39508983

