%chk=mol_6474.chk
# wB97XD/Def2SVP opt freq pop=full gfinput

C 4 H 5 N 1 O 1 S 1

1 2
C    0.92934966   0.06056998  -0.00600000
C    2.41672921   0.01913999  -0.00120000
N    3.18974876   1.08223963   0.00570000
C    4.50741863   0.69982970   0.00840000
O    5.50474787   1.59864938   0.01529999
C    4.73527813  -0.65910977   0.00358000
S    3.23644876  -1.49320948  -0.00479000
H    0.57578981   1.09635961   0.00194000
H    0.52273983  -0.44085982   0.87808973
H    0.52931982  -0.42505983  -0.90185970
H    6.36601734   1.15322959   0.01623999
H    5.67155790  -1.19545960   0.00443000

