%chk=mol_6508.chk
# wB97XD/Def2SVP opt pop=full gfinput

C 5 H 5 N 1 S 1

1 2
C    5.179399  -2.334209   0.831328
C    4.261805  -0.031180   0.318098
C    5.741271   2.216252   0.187310
C    4.909735   4.654887  -0.321669
N    6.712950   6.542874  -0.347955
C    8.927237   5.540356   0.142353
S    8.971607   2.349289   0.651313
H    3.916061  -3.950284   0.894729
H    7.159246  -2.711322   1.200486
H    2.242160   0.152406  -0.025133
H    2.960955   5.162448  -0.694266
H   10.636834   6.659716   0.222818

