%chk=mol_5284.chk
# wB97XD/Def2SVP opt freq pop=full gfinput

C 4 H 7 N 1 O 2

1 2
C    3.17591882  -1.09324956  -0.41045985
O    2.34366918   0.01759999  -0.11231995
C    3.06727886   1.24447954  -0.06346998
C    3.31356859   1.79173934  -1.44955945
C    3.08002877   3.22194862  -1.17566955
N    2.52861905   3.49922872  -0.04611998
O    2.29711914   2.26099920   0.60453975
H    2.55330896  -1.99182928  -0.43366984
H    3.93843865  -1.21986949   0.36357987
H    3.64927864  -0.97464961  -1.38960946
H    3.99842858   1.12236953   0.50426978
H    2.60171890   1.43727946  -2.20000911
H    4.33172846   1.61270940  -1.80175924
H    3.34196877   3.98539853  -1.92015922

