%chk=mol_5137.chk
# wB97XD/Def2SVP opt freq pop=full gfinput

C 6 H 11 N 1

1 2
C    1.05264962  -0.03908999  -0.03967999
C    2.54588890   0.06232998  -0.00317000
C    3.46270871  -0.59137976  -1.09539950
C    4.53100872  -0.33295986   0.00549000
C    3.41898870  -0.76975971   1.00129962
C    4.52617836   1.17684948   0.13043995
N    3.08166885   1.43985951   0.13474995
H    0.60276979   0.36789986   0.87217969
H    0.73237973  -1.08230960  -0.12763995
H    0.63746977   0.50628978  -0.89369965
H    3.58055854  -0.04866998  -2.03844929
H    3.25892901  -1.64420938  -1.32327950
H    5.46892786  -0.88432968  -0.02223999
H    3.20908856  -1.84516931   1.03945959
H    3.49517870  -0.39428985   2.02716923
H    4.98984814   1.51867938   1.06077957
H    5.02134800   1.66177940  -0.71827972
H    2.84415889   2.05509925  -0.64313978

