%chk=mol_4827.chk
# wB97XD/Def2SVP opt freq pop=full gfinput

C 5 H 10 N 2

1 2
C   -1.70894933   0.83290964   0.51569980
C   -1.15507948  -0.24216992  -0.37070987
N   -0.39357987  -1.37805951   0.19357993
C    0.98927963  -1.32280958  -0.32185987
C    1.70073938   0.04852998  -0.12706995
N    0.84941971   1.14809954   0.37461984
C   -0.47217983   1.11389959  -0.28925988
H   -2.62925887   1.31457949   0.20395993
H   -1.62573946   0.72198969   1.58933938
H   -1.69487929  -0.46439981  -1.28741944
H   -0.34970987  -1.28392947   1.20761955
H    1.57618940  -2.11107922   0.16164994
H    0.96708965  -1.56147945  -1.39282942
H    2.53154898  -0.07683997   0.57766980
H    2.14563918   0.35760987  -1.08055949
H    0.72375971   1.01082969   1.37670958
H   -0.56830978   1.76082933  -1.15685964

