%chk=mol_0419.chk
# wB97XD/Def2SVP opt pop=full gfinput

C 4 H 8 N 2

1 2
C    1.604189  -0.736974   0.175726
C    4.448812  -0.390909   0.136041
C    5.089940   2.334889  -0.331647
N    6.294734   3.007650  -2.348797
N    6.675363   5.607460  -2.374894
C    7.937795   6.266823  -4.353230
H    1.122592  -2.716500   0.528386
H    0.764016  -0.173458  -1.629019
H    0.736351   0.415532   1.658991
H    5.297243  -1.576334  -1.332559
H    5.253477  -0.932240   1.963596
H    4.487381   3.716373   1.113559
H    8.403196   8.270084  -4.665148
H    8.598443   4.906428  -5.788893

