%chk=mol_0099.chk
# wB97XD/Def2SVP opt pop=full gfinput

C 3 H 7 N 1 O 1

1 2
C    1.620516   0.276599   0.203769
N    4.333520   0.251390  -0.036169
C    5.891335   2.299929  -0.213709
C    4.717153   4.883336  -0.029064
O    8.178546   1.997082  -0.469918
H    0.980088  -1.637297   0.637178
H    0.796784   0.902231  -1.583855
H    1.059569   1.565468   1.716174
H    5.237395  -1.426970  -0.224329
H    3.039719   5.018206  -1.224750
H    6.076717   6.296265  -0.681019
H    4.223217   5.280027   1.936195

