%chk=mol_0475.chk
# wB97XD/Def2SVP opt pop=full gfinput

C 5 H 11 N 1

1 2
C    2.264024   0.289922   0.305984
N    4.950138  -0.034998  -0.269286
C    5.259183  -1.408110  -2.650605
C    6.293733   2.404676  -0.309386
C    7.200707   3.523206   2.142118
C    9.071309   2.462805   0.294722
H    2.022536   1.227396   2.135504
H    1.319293  -1.546268   0.447393
H    1.294481   1.420866  -1.132192
H    4.352096  -3.265730  -2.546519
H    7.264353  -1.744444  -3.038831
H    4.456107  -0.371482  -4.253150
H    5.642949   3.739125  -1.734353
H    6.871139   2.475768   3.870821
H    7.105200   5.555851   2.356885
H   10.247097   3.774804  -0.745988
H    9.998427   0.703035   0.782384

