%chk=mol_2782.chk
# wB97XD/Def2SVP opt pop=full gfinput

C 6 H 10 O 1

1 2
C    2.234185   0.081504  -0.166466
C    5.073763  -0.106089   0.084187
C    6.189609  -2.620086   0.219095
C    4.935794  -4.818972   0.136665
C    6.447897   2.039997   0.177615
C    9.241554   2.384778   0.402190
O    9.736644   3.710421   2.681767
H    1.581172   2.045780  -0.243378
H    1.294746  -0.804513   1.452028
H    1.589468  -0.838812  -1.905524
H    8.230229  -2.749608   0.404723
H    2.899331  -4.944771  -0.046034
H    5.959648  -6.594350   0.252354
H    5.444887   3.836390   0.061964
H    9.933874   3.530424  -1.174049
H   10.324254   0.630205   0.424829
H    8.954921   2.736947   4.031277

