%chk=mol_1384.chk
# wB97XD/Def2SVP opt pop=full gfinput

C 6 H 9 N 1

1 2
C    1.892995  -0.392874  -0.371860
C    4.709254   0.098133   0.055218
C    6.247775  -1.506603  -1.637164
N    7.435090  -2.787384  -2.966152
C    5.377877   2.884705  -0.257456
C    5.029185   4.068410  -2.826010
C    6.250194   4.264488   1.692117
H    0.733611   0.812015   0.849073
H    1.423795  -2.364406   0.058752
H    1.331596  -0.050720  -2.335777
H    5.134008  -0.478989   2.003714
H    3.049413   3.971637  -3.414395
H    6.190138   3.110999  -4.244193
H    5.574371   6.065756  -2.833966
H    6.520065   3.459673   3.561378
H    6.729976   6.249835   1.475253

