%chk=mol_7094.chk
# wB97XD/Def2SVP opt freq pop=full gfinput

C 6 H 13 N 1

1 2
C    0.78261971   0.91578960   0.10844996
C    2.25015926   0.80557972   0.36949986
C    3.19523883   1.28682947  -0.45207983
C    4.68240833   1.16803956  -0.19521993
C    5.32460785   0.32636988  -1.30228949
C    5.31416798   2.57326913  -0.09591997
N    6.73887730   2.53188920   0.23652992
H    0.34052986  -0.08338997   0.04320998
H    0.56690979   1.44602942  -0.82448971
H    0.29787990   1.45446944   0.92736965
H    2.53693891   0.29425988   1.28598952
H    2.90091896   1.79146934  -1.37156951
H    4.84460831   0.64761972   0.75898975
H    5.24337816   0.81877971  -2.27753925
H    4.84002781  -0.65315980  -1.37898946
H    6.38603735   0.15043995  -1.10034966
H    4.79613781   3.15869880   0.67335975
H    5.19358778   3.11010861  -1.04443955
H    6.86299753   2.07595921   1.13897955
H    7.08365726   3.48406863   0.34800988

