%chk=mol_5187.chk
# wB97XD/Def2SVP opt pop=full gfinput

C 4 H 10 N 2 O 1

1 2
C    1.435474   5.659201   4.225031
N    2.540737   4.134494   2.255067
C    4.646931   4.827835   0.896278
N    5.278137   7.129937   0.393573
C    6.307774   2.689685  -0.142996
O    5.891769   0.447922   1.308465
C    7.428494  -1.570060   0.421655
H   -0.192828   4.673728   5.034779
H    0.767097   7.471883   3.488775
H    2.802766   6.003074   5.738513
H    2.608238   2.253517   2.694787
H    3.956860   8.323658   1.136708
H    8.295048   3.262499  -0.030236
H    5.776553   2.363840  -2.116758
H    7.106788  -3.211930   1.633385
H    9.429903  -1.060798   0.518843
H    6.911806  -2.068041  -1.517809

