%chk=mol_1476.chk
# wB97XD/Def2SVP opt freq pop=full gfinput

C 7 H 10

1 2
C    0.93809962  -0.00128000  -0.24627990
C    2.45473909   0.00078000  -0.05250998
C    2.88292885   1.26566947   0.65484977
C    3.50849867   1.27343953   1.84465933
C    3.85934854   0.02321999   2.60044909
C    3.50858879  -1.23943961   1.86448932
C    2.88357878  -1.25221944   0.67607975
H    0.61294979  -0.89229965  -0.79499972
H    0.61387974   0.87564963  -0.81753975
H    0.40891984   0.01101000   0.71422976
H    2.93459892  -0.00753000  -1.03922963
H    2.66833901   2.20881939   0.15983994
H    3.78574872   2.21945906   2.30002928
H    4.93613815   0.02442999   2.80405879
H    3.33873868   0.03071999   3.56464863
H    3.78646851  -2.17813921   2.33536911
H    2.66899920  -2.20382929   0.19635993

