%chk=mol_4788.chk
# wB97XD/Def2SVP opt freq pop=full gfinput

C 4 H 8 N 2 O 1

1 2
C    3.20953894  -1.43594944  -0.15173994
C    2.64185905  -0.03481999  -0.20293993
N    1.37003958   0.13910994  -0.45194983
N    3.46484852   1.06478965   0.01312000
O    2.75777912   2.27664924  -0.07484997
C    4.81325817   1.11884952   0.28802988
C    5.57327795   2.20056915   0.49053982
H    3.99068856  -1.54163945  -0.90994966
H    2.43612909  -2.18473911  -0.34231988
H    3.63698864  -1.62106943   0.83786970
H    0.90475965  -0.76523972  -0.58688980
H    1.84623933   1.96184933  -0.27320990
H    5.28325796   0.14168996   0.33880988
H    5.14739847   3.19834876   0.44961983
H    6.63290787   2.10979915   0.70054972

