%chk=mol_0453.chk
# wB97XD/Def2SVP opt pop=full gfinput

C 4 H 10 N 2

1 2
C    2.175415  -0.443254  -1.626431
C    4.334654  -0.601953   0.259497
N    5.804861   1.739247   0.227277
N    7.803076   1.797696   1.830162
C    9.109595   3.859085   1.686335
C   11.374054   4.244136   3.337049
H    1.081509  -2.199679  -1.607496
H    2.881077  -0.152482  -3.550890
H    0.888190   1.111650  -1.166245
H    5.553149  -2.203874  -0.227088
H    3.571639  -0.932599   2.155781
H    4.618056   3.237195   0.510547
H    8.634631   5.407697   0.367590
H   11.699030   2.601265   4.543733
H   11.067654   5.917432   4.508017
H   13.025372   4.567430   2.140833

