%chk=mol_0008.chk
# wB97XD/Def2SVP opt pop=full gfinput

C 3 H 8

1 2
C    1.870791  -0.025247   0.007786
C    4.741172   0.031199   0.015609
C    5.747867   2.719996   0.012227
H    1.192228  -1.979318   0.000964
H    1.114447   0.922904  -1.668118
H    1.106246   0.913758   1.685201
H    5.455204  -0.974059  -1.647501
H    5.445416  -0.966519   1.687412
H    5.123804   3.743132  -1.674184
H    7.816020   2.711266   0.028743
H    5.096648   3.758325   1.679022

