%chk=mol_2757.chk
# wB97XD/Def2SVP opt pop=full gfinput

C 6 H 10 O 1

1 2
C    1.274545  -0.485206  -0.380213
C    4.034376   0.026664  -0.032201
C    5.196445   2.290121   0.105844
C    3.857007   4.802947   0.038532
C    8.032470   2.447346   0.437717
C    9.225114   3.578159  -1.896227
O   10.319077   5.624732  -1.914141
H    1.020603  -1.898476  -1.870111
H    0.190428   1.181249  -0.932561
H    0.473868  -1.245235   1.368105
H    5.176281  -1.682423   0.105466
H    1.817312   4.642793   0.314602
H    4.187727   5.745183  -1.772998
H    4.560230   6.030267   1.549840
H    8.890614   0.586306   0.732080
H    8.503125   3.610152   2.084160
H    9.078036   2.431605  -3.632262

