%chk=mol_5934.chk
# wB97XD/Def2SVP opt freq pop=full gfinput

C 5 H 9 N 1 O 1

1 2
O    1.01837969  -0.02182999   0.07572997
C    2.45926929   0.00115000  -0.00382000
C    3.10671878   1.02893960  -0.97963965
C    2.70027900   0.03445999  -2.10471916
C    3.14808893  -0.99202961  -1.01366961
N    4.60097837  -0.71476972  -0.86982971
C    4.58971834   0.75386971  -0.81825972
H    0.78243971   0.78559971   0.56321979
H    2.87378883  -0.00910000   1.01182961
H    2.72955894   2.04896927  -1.01185966
H    3.28429890   0.06454998  -3.03081894
H    1.63781941   0.01809999  -2.37369919
H    2.82412887  -2.02884912  -1.07974958
H    5.01040792  -1.08981955  -0.01428000
H    5.18174791   1.17838955  -1.63486934
H    4.97441816   1.12708962   0.13678995

