%chk=mol_3475.chk
# wB97XD/Def2SVP opt pop=full gfinput

C 5 H 8 O 2

1 2
C    3.160813   0.069069  -1.906526
O    5.675018   0.260045  -0.942312
C    6.513603   2.688646  -0.676768
O    5.269275   4.572230  -1.177356
C    9.180025   2.652023   0.398883
C   10.336065   5.245842   0.499700
C   12.508211   5.890465  -0.624555
H    2.693332  -1.935703  -2.080362
H    3.033370   0.935584  -3.779755
H    1.817671   0.943729  -0.598968
H   10.333193   1.387342  -0.768438
H    9.084575   1.888271   2.320659
H    9.297604   6.675949   1.555925
H   13.613095   4.544999  -1.710523
H   13.228745   7.808235  -0.485376

