%chk=mol_1174.chk
# wB97XD/Def2SVP opt freq pop=full gfinput

C 6 H 11 N 1

1 2
C    3.40397882  -0.72257972  -0.63504976
C    2.70748901  -0.01646999   0.51967978
C    3.16255879   1.44353950   0.71472973
C    2.31022930   2.11546922   1.79851937
C    4.66676807   1.60632944   1.00540960
C    5.11170816   0.90218967   2.21734905
N    5.46578789   0.34795985   3.17334867
H    2.96648884  -1.71499932  -0.78602976
H    4.47143793  -0.85980970  -0.43901983
H    3.29075861  -0.15843993  -1.56625938
H    2.85789871  -0.59434974   1.43904948
H    1.62819934  -0.02778999   0.32154989
H    2.96101880   1.98007929  -0.22283992
H    2.41721916   1.61613929   2.76718903
H    1.24945951   2.09018922   1.52582943
H    2.59498906   3.16583896   1.92205930
H    4.89878845   2.67352891   1.10888958
H    5.25105810   1.25513947   0.14793994

