%chk=mol_6975.chk
# wB97XD/Def2SVP opt freq pop=full gfinput

C 7 H 10

1 2
C    0.90655965  -0.01956999   0.13973995
C    2.42117906  -0.00404000  -0.02865999
C    3.14905882   1.06056964   0.84771967
C    4.20882845  -0.00582000   1.18762946
C    3.16782880  -1.08000958   0.81703967
C    2.79320884   0.01954999  -1.43897951
C    3.09798884   0.03817999  -2.60047913
H    0.62025976  -0.03822998   1.19771957
H    0.46405983  -0.90341967  -0.33424988
H    0.44889984   0.87101972  -0.30691987
H    2.57808900   1.39451945   1.72295940
H    3.53074861   1.94752932   0.33155987
H    5.08102798   0.01170000   0.52496982
H    4.55231857  -0.01770999   2.22474933
H    3.56551862  -1.94523919   0.27490988
H    2.60343909  -1.44969952   1.68152940
H    3.36801887   0.05477998  -3.63093853

