%chk=mol_2474.chk
# wB97XD/Def2SVP opt freq pop=full gfinput

C 6 H 10 O 1

1 2
C    0.99366963   0.02206999   0.02811999
C    2.49004912  -0.00422000  -0.03796998
C    3.20932889   1.09984970  -0.29727989
O    4.57613850   1.17455947  -0.33866987
C    5.25036812   0.03223999   0.20156993
C    4.62849808  -1.27510953  -0.26377991
C    3.16531873  -1.33043957   0.16787992
H    0.56635976  -0.87553966  -0.43235984
H    0.57969981   0.88716966  -0.50246978
H    0.66362977   0.06681997   1.07183957
H    2.77437901   2.06899929  -0.50884980
H    6.29480743   0.08490997  -0.12250996
H    5.24390793   0.10425996   1.29609954
H    5.17751789  -2.13417912   0.13654995
H    4.68040848  -1.32922947  -1.35919952
H    3.09674883  -1.60601938   1.22689962
H    2.65864897  -2.11273932  -0.40908986

