%chk=mol_2756.chk
# wB97XD/Def2SVP opt freq pop=full gfinput

C 6 H 10 O 1

1 2
C    0.83871973  -0.12014996   0.11607996
C    2.32632923   0.01361000   0.00337000
C    3.03693891   1.15462959  -0.09743997
C    2.46203899   2.54399896  -0.07066997
C    4.54153824   1.12455952  -0.23586991
C    5.26555777  -0.19741993  -0.28660989
O    5.17072821   2.18114924  -0.31141990
H    0.49089980  -0.89167970  -0.57926983
H    0.29591987   0.79515970  -0.12524995
H    0.56862974  -0.43153983   1.12945962
H    2.83161902  -0.94894964  -0.00144000
H    1.39248943   2.56623888   0.15013994
H    2.61158895   3.03465891  -1.03815961
H    2.95071888   3.14576888   0.70359975
H    4.92330790  -0.78432971  -1.14266968
H    5.12016821  -0.74477971   0.64826971
H    6.33800745  -0.01562999  -0.40969986

