%chk=mol_5088.chk
# wB97XD/Def2SVP opt pop=full gfinput

C 5 H 13 N 1 O 1

1 2
C    1.902614   3.169468   2.630215
N    4.613369   3.663612   2.504964
C    5.697468   2.632181   0.169036
C    8.538312   3.195092  -0.006746
C    9.257126   6.006419  -0.016516
C    8.126503   7.479857  -2.212472
O    8.521379   7.186459   2.290953
H    1.146270   3.946542   4.389928
H    1.500650   1.141036   2.603627
H    0.905613   4.081752   1.065201
H    5.463595   2.804429   4.015271
H    4.728133   3.419289  -1.482698
H    5.429296   0.576612   0.121169
H    9.277251   2.303482  -1.724810
H    9.481418   2.280125   1.598765
H   11.319158   6.150492  -0.126347
H    6.064490   7.600120  -2.074107
H    8.630890   6.628744  -4.028764
H    8.819314   9.432700  -2.190665
H    6.787103   6.614004   2.628250

