%chk=mol_0516.chk
# wB97XD/Def2SVP opt freq pop=full gfinput

C 5 H 9 N 1

1 2
N    0.92268962   0.00206000  -0.29124990
C    2.35267925  -0.05584998   0.00607000
C    3.23969865  -0.88525969  -0.87284964
C    3.32741857   0.61659974  -0.93023962
C    4.49974823   1.28891957  -0.36304986
C    5.75366783   1.19751954  -0.82575965
H    0.50967979   0.84903967   0.09773996
H    0.43337983  -0.77854967   0.14508994
H    2.59415889  -0.05514998   1.06732953
H    2.79770899  -1.39218950  -1.72303939
H    4.04128838  -1.44084942  -0.40008986
H    2.91740894   1.10107958  -1.81161940
H    4.31981850   1.93181920   0.49652982
H    5.99079800   0.58062977  -1.68720937
H    6.56509781   1.73897934  -0.35124987

