%chk=mol_4554.chk
# wB97XD/Def2SVP opt freq pop=full gfinput

C 5 H 5 N 1 O 1

1 2
C    2.03652930  -1.13325953  -0.28789991
C    3.17990875  -0.44212982  -0.20409992
C    3.16603875   1.03350961   0.03922999
O    2.10657930   1.63590932   0.20997992
C    4.49364853   1.74226940   0.14348996
C    5.27604771   1.58722937  -1.08035958
N    5.91327763   1.43956935  -2.03915930
H    2.04325914  -2.20320916  -0.46691981
H    1.06737971  -0.65043980  -0.18463993
H    4.13825846  -0.93724966  -0.31189990
H    5.03073788   1.34784949   1.01252961
H    4.30527830   2.80478883   0.33335987

