%chk=mol_5058.chk
# wB97XD/Def2SVP opt freq pop=full gfinput

C 5 H 13 N 1 O 1

1 2
C    1.31269956   1.94673920   0.92762965
N    2.73188877   2.05938911   1.25609946
C    3.55515862   1.46760941   0.19759993
C    5.04941797   1.57721937   0.52007979
C    5.65531778   2.98339891   0.39837983
C    5.24549818   3.96263838   1.49349940
O    3.96015859   4.50818825   1.24298942
H    0.72001976   2.42230916   1.71562934
H    1.00039959   0.90051967   0.85359967
H    1.08159947   2.45909905  -0.01218000
H    2.90029883   1.55351937   2.12923932
H    3.35624886   1.95838928  -0.76115972
H    3.30163884   0.40609986   0.08870997
H    5.58356810   0.93006963  -0.18829994
H    5.25448799   1.16774964   1.51743948
H    5.41068792   3.39844871  -0.58649981
H    6.74549723   2.87011886   0.44256982
H    5.94859791   4.80121851   1.51519942
H    5.25306797   3.49547863   2.48352909
H    3.33570886   3.74787855   1.25490952

