%chk=mol_4603.chk
# wB97XD/Def2SVP opt freq pop=full gfinput

C 4 H 9 N 1 O 2

1 2
C    1.03617954   0.07764997   0.03048999
C    2.55925894  -0.02844999   0.05127998
C    3.04073882  -0.85380971   1.24034953
O    2.99274898  -0.69252980  -1.13694954
C    3.18086863   1.36267948   0.08544997
N    3.07748890   2.13437939   1.12150967
O    3.72904849   3.34332871   0.85130966
H    0.69897974   0.67792976  -0.82206970
H    0.64859980   0.54359984   0.94221961
H    0.57762980  -0.91120964  -0.07958997
H    2.71093917  -0.42907986   2.19439912
H    4.13603830  -0.90946966   1.25664949
H    2.67509890  -1.88519931   1.17452955
H    2.53215909  -0.29363987  -1.89452922
H    3.70404863   1.69772935  -0.82761967
H    3.63625884   3.82602859   1.69461942

