%chk=mol_4612.chk
# wB97XD/Def2SVP opt freq pop=full gfinput

C 4 H 7 N 1 O 2

1 2
C    1.01962960  -0.46060982   0.05673998
C    2.48020911  -0.04646998   0.03924999
C    2.64586902   1.45447946   0.03820999
O    1.72798932   2.27005911   0.01888999
C    4.08881855   1.96831918   0.05689998
N    4.20341825   3.33068871   0.04572998
O    5.03878832   1.20537949   0.07964997
H    0.93240964  -1.55152941   0.05272998
H    0.48895982  -0.07148997  -0.81890970
H    0.51390982  -0.07998997   0.95076960
H    2.96234894  -0.44787982  -0.85772967
H    2.98191881  -0.45053983   0.92420965
H    3.36814880   3.90623856   0.02696999
H    5.11758804   3.75829864   0.05726998

