%chk=mol_6700.chk
# wB97XD/Def2SVP opt freq pop=full gfinput

C 5 H 8 N 2

1 2
C    0.93971968  -0.02535999  -0.16870995
C    2.45689893  -0.03155999  -0.00041000
C    2.91782904   1.25188959   0.65471977
C    3.56857872   1.22918963   1.82150936
N    3.82520843   0.03499999   2.42301893
C    3.44987893  -1.13617957   1.83246934
N    2.82153893  -1.27585948   0.71949977
H    0.60473973  -0.92933965  -0.68938977
H    0.60670978   0.84175968  -0.74962974
H    0.43210983   0.00023000   0.80261970
H    2.91977906  -0.08229997  -0.99336964
H    2.71362901   2.19090915   0.15156995
H    3.91884851   2.11935925   2.33165932
H    4.32942867   0.03254999   3.29989862
H    3.74465847  -2.02371931   2.41629910

