%chk=mol_3487.chk
# wB97XD/Def2SVP opt pop=full gfinput

C 7 H 12

1 2
C    3.395290  -1.651054   1.781161
C    6.058651  -0.719891   1.201167
C    6.333814   2.173884   1.398057
C    5.882245   3.100795   4.060625
C    4.102520   4.786620   4.702489
C    8.947021   2.950940   0.544166
C    9.410174   4.553919  -1.362247
H    3.278221  -3.694301   1.479372
H    2.007078  -0.742114   0.546339
H    2.869511  -1.276548   3.745362
H    6.550471  -1.327759  -0.720798
H    7.391928  -1.666549   2.478546
H    4.929748   3.028853   0.129257
H    7.094542   2.337346   5.535688
H    2.847647   5.612808   3.306530
H    3.876528   5.380579   6.652441
H   10.542480   2.144688   1.561802
H    7.891459   5.422550  -2.432739
H   11.333708   5.040183  -1.879257

