%chk=mol_4482.chk
# wB97XD/Def2SVP opt freq pop=full gfinput

C 6 H 9 N 1

1 2
C   -1.00479960  -0.01655999   1.05807960
C   -0.54294980  -1.07333958   0.00397000
C   -1.05490959   0.00791000  -1.00098956
N   -0.67972976   1.04134965   0.03245999
C    0.79926968   1.23549950  -0.00123000
C    1.59922934  -0.05207998  -0.03600999
C    0.94333965  -1.22344959  -0.03395999
H   -0.44767985   0.03637999   2.00045919
H   -2.07341933  -0.06542998   1.30736947
H   -1.07503951  -2.02745914   0.00559000
H   -2.13441920  -0.03562999  -1.19910955
H   -0.54424977   0.08354997  -1.96781921
H    1.05340958   1.83638930  -0.88221967
H    1.09629965   1.81545937   0.88034964
H    2.68176913  -0.00220000  -0.06169998
H    1.42572939  -2.19163918  -0.05722998

