%chk=mol_0557.chk
# wB97XD/Def2SVP opt freq pop=full gfinput

C 5 H 9 N 1

1 2
N    1.14370966  -0.33484986   0.22915992
C    2.58588910  -0.30985990   0.45590982
C    3.19977903   0.93356967  -0.18882993
C    4.70283794   1.04467964   0.06961998
C    5.46695805   0.00361000  -0.63345981
C    6.09283781  -0.84713972  -1.20781958
H    0.75710970  -1.19098949   0.62530982
H    0.95802963  -0.37923986  -0.77251971
H    3.02727890  -1.22249949   0.04218999
H    2.77490878  -0.30627987   1.53475952
H    2.71319890   1.82842934   0.22047991
H    3.00524902   0.93112969  -1.26934946
H    4.90427828   0.99534965   1.14592957
H    5.04719782   2.02809930  -0.27203992
H    6.64760733  -1.60000944  -1.71735942

