%chk=mol_2185.chk
# wB97XD/Def2SVP opt pop=full gfinput

C 5 H 8 O 2

1 2
C   -2.390201  -1.441691  -1.014367
C   -2.338631   1.451536  -0.968126
C    0.062644   1.914897   0.552839
O    2.165135   1.335413  -1.073251
C    2.350555  -1.382240  -0.899396
C   -0.037946  -2.094194   0.530106
O   -0.045637  -0.098455   2.382680
H   -2.339141  -2.222998  -2.927998
H   -4.102785  -2.119933  -0.068427
H   -4.008468   2.167705   0.021278
H   -2.258223   2.257788  -2.869058
H    0.230433   3.788636   1.403386
H    4.056675  -1.819391   0.186251
H    2.482269  -2.213436  -2.786345
H   -0.036245  -3.979952   1.365100

