%chk=mol_6449.chk
# wB97XD/Def2SVP opt freq pop=full gfinput

C 5 H 7 N 1 S 1

1 2
C    0.87665969  -0.04296998  -0.00345000
C    2.36143899   0.02678999  -0.00442000
C    3.21678877   1.11841953  -0.00132000
C    2.81280899   2.55079913   0.00406000
C    4.57138824   0.65192974  -0.00436000
N    4.76986837  -0.66183972  -0.00934000
S    3.29333878  -1.41076946  -0.01072000
H    0.43048984   0.95644969   0.00854000
H    0.51406980  -0.57930982   0.87971967
H    0.51243979  -0.55897981  -0.89799964
H    3.68622875   3.21036887   0.00955000
H    2.21394920   2.77591896   0.89213967
H    2.21896911   2.78378892  -0.88535970
H    5.45450830   1.27862954  -0.00301000

