%chk=mol_4646.chk
# wB97XD/Def2SVP opt pop=full gfinput

C 4 H 6 N 2 O 1

1 2
C    0.285689   0.873394   0.524078
C    1.445622  -1.697919   0.205848
C   -0.322104  -3.926001   0.465629
O   -2.554116  -3.603009   0.958242
N    3.849882  -1.899836  -0.262559
N    4.707591  -4.366307  -0.515536
C    7.107978  -4.397468  -0.954765
H    1.714227   2.346227   0.276920
H   -0.522660   1.038612   2.418339
H   -1.201072   1.142831  -0.885148
H    0.522301  -5.804124   0.182056
H    8.091580  -6.213174  -1.205589
H    8.263167  -2.666838  -1.097005

