%chk=mol_3239.chk
# wB97XD/Def2SVP opt pop=full gfinput

C 5 H 12 O 2

1 2
C    1.742932  -0.539422  -0.237255
C    4.580091  -0.909034  -0.544884
O    5.038369  -2.241669  -2.840315
C    5.984895   1.620667  -0.576914
C    8.853348   1.266362  -0.795575
C   10.259021   3.780303  -0.746555
O    9.552452   5.303214  -2.842829
H    1.297958   0.415778   1.541752
H    0.770593  -2.366447  -0.268379
H    0.963571   0.574344  -1.799265
H    5.283240  -2.086314   1.005901
H    4.342383  -1.240945  -4.216376
H    5.550976   2.677459   1.152374
H    5.322716   2.753803  -2.181689
H    9.288004   0.284725  -2.568875
H    9.531401   0.080635   0.761144
H   12.302759   3.471200  -0.827020
H    9.837441   4.828043   0.984774
H   10.027133   4.389191  -4.365721

