%chk=mol_0189.chk
# wB97XD/Def2SVP opt pop=full gfinput

C 3 H 4 N 2

1 2
N    1.854067  -0.185817   0.000000
C    4.415515   0.015836   0.000000
C    5.770317   2.150489   0.000000
C    8.427272   2.150489   0.000000
N   10.602365   2.150489   0.000000
H    1.023627  -1.915011   0.000000
H    0.737485   1.371318   0.000000
H    5.358035  -1.817520   0.000000
H    4.836414   3.971751  -0.000000

