%chk=mol_0093.chk
# wB97XD/Def2SVP opt pop=full gfinput

C 3 H 9 N 1 O 1

1 2
C    1.856108  -0.070128  -0.086644
C    4.719856   0.090669   0.147569
N    5.972366  -1.246123  -1.953504
C    5.632442   2.850652   0.204638
O    8.328023   2.898575   0.229980
H    0.941348   0.887170   1.502956
H    1.222275  -2.040073  -0.085680
H    1.187277   0.815738  -1.833620
H    5.324984  -0.838264   1.900762
H    5.341160  -0.531448  -3.631940
H    5.415539  -3.093576  -1.940295
H    4.947398   3.827546   1.893241
H    4.991069   3.893497  -1.464065
H    8.822186   1.428765  -0.784047

