%chk=mol_2372.chk
# wB97XD/Def2SVP opt freq pop=full gfinput

C 5 H 8 O 2

1 2
C    1.09742951  -0.10242996   0.25555989
C    2.56586909   0.05941998  -0.13355994
C    3.30592895   1.12733960   0.70232975
C    3.98283863  -0.05337998   1.38726950
O    3.35786867  -0.99705958   0.49194983
C    2.76544905   0.12663995  -1.69878936
O    2.20148897  -0.54227984  -2.56535912
H    0.97471964  -0.18881993   1.34072948
H    0.67025977  -1.00296962  -0.19847992
H    0.51079983   0.75881970  -0.08141997
H    2.68299890   1.74434936   1.35604954
H    3.99060845   1.77252936   0.14438994
H    5.07283783  -0.07857997   1.30467951
H    3.68303871  -0.22852992   2.42425895
H    3.49725890   0.88698965  -2.02028918

