%chk=mol_0702.chk
# wB97XD/Def2SVP opt freq pop=full gfinput

C 5 H 8 O 1

1 2
C    0.99999964   0.00000000   0.00000000
C    2.44399905   0.00000000   0.00000000
C    3.63415861   0.00000000   0.00000000
C    5.07815790   0.00000000   0.00000000
C    5.64698792   1.41691947  -0.00354000
O    7.06977749   1.38397944   0.03741999
H    0.60599977   1.02087963   0.01169000
H    0.60591978  -0.52051979   0.87824970
H    0.60591978  -0.50026983  -0.88993967
H    5.46498775  -0.54468977  -0.86954969
H    5.45970821  -0.53958976   0.87518966
H    5.29007816   1.99486923   0.85584968
H    5.34892797   1.95185924  -0.91152966
H    7.32925701   1.01193964   0.89786965

