%chk=mol_1431.chk
# wB97XD/Def2SVP opt pop=full gfinput

C 5 H 12 N 2

1 2
C    4.338131  -1.917656   2.496177
C    4.652506  -0.523964  -0.001115
C    5.755747   2.122900   0.327603
N    8.339172   1.920831   1.303665
C    9.406452   4.077576   1.610878
N   11.794404   4.322390   2.519194
C   12.703362   6.599906   3.696833
H    3.452964  -3.758760   2.175963
H    3.140366  -0.846692   3.796838
H    6.163701  -2.243558   3.409973
H    2.798212  -0.367457  -0.914665
H    5.861420  -1.643533  -1.258539
H    4.567695   3.221643   1.622840
H    5.763684   3.073413  -1.514256
H    8.478974   5.898232   1.173955
H   12.509968   2.671903   3.188270
H   12.442372   8.228945   2.450937
H   14.720739   6.421743   4.109493
H   11.702563   6.947937   5.472685

