%chk=mol_4249.chk
# wB97XD/Def2SVP opt pop=full gfinput

C 6 H 11 N 1

1 2
C   -3.121261   1.197878   0.429384
C   -2.797853  -1.613032  -0.536229
C   -0.254735  -1.431770   0.800715
N    2.035462  -2.359796  -0.395520
C    3.864754  -0.331156   0.265034
C    2.264912   1.946134   1.173180
C   -0.228147   1.389724  -0.096149
H   -4.330723   2.388878  -0.746347
H   -3.671095   1.400873   2.414220
H   -2.745016  -1.821261  -2.597769
H   -4.140655  -2.970423   0.251598
H   -0.355306  -1.772506   2.847817
H    1.921852  -2.491944  -2.315066
H    5.169705  -0.952838   1.745011
H    4.969904   0.170623  -1.412608
H    2.099977   1.979016   3.238102
H    3.081085   3.740713   0.549589
H    0.035678   1.719178  -2.145425

