%chk=mol_4434.chk
# wB97XD/Def2SVP opt freq pop=full gfinput

C 5 H 11 N 1 O 1

1 2
C    1.17737961  -0.45495984   1.02035964
C    2.63731885  -0.71044970   0.68380976
C    3.24364877   0.45187983  -0.09738997
C    4.70270824   0.21562992  -0.44070983
O    5.32757807  -0.78678972  -0.11440996
N    5.25448799   1.25348949  -1.16305947
C    6.65073729   1.25049949  -1.51754951
H    0.76344973  -1.30064952   1.57822943
H    0.58228976  -0.32384989   0.11102996
H    1.06824958   0.44384983   1.63553941
H    2.71781898  -1.63534939   0.10016996
H    3.19950891  -0.87154967   1.61143947
H    3.17600870   1.37321949   0.49309981
H    2.69115901   0.60183978  -1.03243959
H    4.72958803   2.11189914  -1.26628947
H    6.94971704   0.25963992  -1.86979926
H    7.23719740   1.51477933  -0.63381982
H    6.81209707   1.99054921  -2.30455899

