%chk=mol_0825.chk
# wB97XD/Def2SVP opt freq pop=full gfinput

C 5 H 8 O 1

1 2
C    1.00113964  -0.06273998   0.03003999
O    2.42005920  -0.00665000   0.02890999
C    2.89400887   1.33854949   0.00000000
C    4.33800840   1.33854949   0.00000000
C    5.52816820   1.33854949   0.00000000
C    6.97216749   1.33854949   0.00000000
H    0.69699973  -1.11106956   0.05265998
H    0.59812975   0.39880985  -0.87731963
H    0.59814978   0.43736985   0.91707969
H    2.51464915   1.87451935   0.87739968
H    2.51464915   1.83633935  -0.89960963
H    7.36624765   2.35939932  -0.01167999
H    7.36621714   0.81798971  -0.87823963
H    7.36621714   0.83821964   0.88991970

