%chk=mol_6094.chk
# wB97XD/Def2SVP opt pop=full gfinput

C 4 H 5 N 1 O 2

1 2
O    2.922272   0.514591   1.331293
C    4.707176  -0.019729  -0.029650
O    4.860338  -2.232428  -1.381938
C    7.363979  -2.468511  -2.387990
C    8.631986  -0.023981  -1.826326
C    7.574400   2.410629  -2.787044
N    6.874200   1.419184  -0.377548
H    8.305422  -4.059906  -1.463687
H    7.244983  -2.824460  -4.420731
H   10.500735  -0.142920  -1.019375
H    8.705609   4.108264  -2.666838
H    6.089472   2.405792  -4.193812

