%chk=mol_6610.chk
# wB97XD/Def2SVP opt pop=full gfinput

C 3 H 5 N 1 O 2 S 1

1 2
C    1.857506  -0.065630   0.227145
N    4.535758   0.199857  -0.454952
S    5.635730   3.171112  -0.270684
O    5.186675   4.456787  -2.627097
O    5.279970   4.234215   2.207162
C    8.997912   3.068310  -0.352698
C   11.269968   2.987562  -0.409806
H    1.324282  -2.056305   0.063495
H    0.666053   1.021662  -1.064728
H    1.528373   0.530616   2.177210
H    4.913911  -0.507221  -2.210035
H   13.279105   2.933800  -0.451040

