%chk=mol_4375.chk
# wB97XD/Def2SVP opt freq pop=full gfinput

C 5 H 13 N 1 O 1

1 2
C    2.82620907  -0.86885965  -0.56074977
C    2.79740906  -0.02454999   0.70597970
C    3.81262851   1.13815963   0.68779975
C    3.59555864   2.08338928   1.89129925
N    3.85136867   1.44866943   3.18592882
C    5.27340794   0.65951973   0.62041974
O    5.59894800  -0.19554994   1.70806944
H    2.01551938  -1.60449946  -0.53900981
H    3.76726866  -1.41848958  -0.65566975
H    2.69456911  -0.24711992  -1.45200944
H    2.96636891  -0.68026978   1.56755936
H    1.78668928   0.38732985   0.81712967
H    3.62480879   1.73417938  -0.21588992
H    2.57102895   2.47249913   1.87933922
H    4.26423836   2.94666886   1.79320931
H    3.12708879   0.74949974   3.36378860
H    3.73116851   2.14645910   3.92275834
H    5.95937777   1.51333940   0.64170974
H    5.46761751   0.11434996  -0.30774990
H    5.25193787   0.25586990   2.50930905

