%chk=mol_5605.chk
# wB97XD/Def2SVP opt freq pop=full gfinput

C 7 H 12

1 2
C    1.25948954   0.16495994   0.10066997
C    0.90476966  -0.01279000   1.54798949
C    0.20800993  -1.26617944   2.01246929
C    1.63720942  -1.01107967   2.40556908
C    2.55581903   0.90262967  -0.07006997
C    3.81454849   0.16038993  -0.44058985
C    3.15187883   1.06225955  -1.44458938
H    1.30030954  -0.80639970  -0.41054985
H    0.45949984   0.73912972  -0.38346988
H    0.61174977   0.92423964   2.00826907
H    0.01668999  -2.05604935   1.29614949
H   -0.55389982  -1.16806960   2.77663898
H    1.84097934  -0.73700970   3.43514872
H    2.40793920  -1.62160933   1.94882929
H    2.63830900   1.75304937   0.59775978
H    3.76075840  -0.90855962  -0.60996974
H    4.74607801   0.49053982   0.00411000
H    3.63706875   2.00356936  -1.67873931
H    2.64656901   0.60376978  -2.28630924

