%chk=mol_6404.chk
# wB97XD/Def2SVP opt freq pop=full gfinput

C 4 H 7 N 1 O 2

1 2
O    1.58366930   1.78165936   1.51188946
N    2.84516907   2.15919900   1.03412962
C    2.83040881   2.12774920  -0.25468990
O    3.89499855   2.44438910  -1.03194964
C    5.11450768   2.83775902  -0.37384987
C    6.08488750   3.60253882  -1.23127949
C    5.30873775   4.31331825  -0.16128993
H    1.69595945   1.85548925   2.47849917
H    1.96571934   1.84705925  -0.87627965
H    5.53878784   2.15790915   0.35955986
H    5.81570768   3.78997850  -2.26400924
H    7.14292717   3.43710876  -1.06797957
H    5.83399773   4.62424850   0.73366976
H    4.51056814   4.98026800  -0.46404985

