%chk=mol_4195.chk
# wB97XD/Def2SVP opt freq pop=full gfinput

C 5 H 9 N 1 O 1

1 2
C    1.00298965   0.00165000   0.01394999
C    2.52530909  -0.02452999  -0.10495996
O    2.89120889  -1.17717957  -0.90770966
C    3.29181886  -0.63041973  -2.10793924
C    3.41404867   0.69159973  -2.14080930
C    3.08744884   1.24017954  -0.80532968
N    4.31024837   1.77252936  -0.20319992
H    0.66979975   0.84431970   0.62686980
H    0.64248979  -0.92716962   0.46908984
H    0.52725983   0.07322997  -0.97034967
H    2.95467901  -0.15792994   0.89558971
H    3.49693871  -1.34461951  -2.88783884
H    3.74200845   1.27422953  -2.98743892
H    2.34091902   2.03845930  -0.86340970
H    4.99976826   1.02070963  -0.15369993
H    4.12298822   2.03226924   0.76348972

