%chk=mol_7067.chk
# wB97XD/Def2SVP opt freq pop=full gfinput

C 6 H 7 N 1

1 2
C    2.05883932  -1.22976959  -0.49096984
C    3.01982880  -0.47972983   0.05994998
C    3.30547881   0.86770970  -0.36996987
C    4.26844835   1.61875939   0.18712993
C    4.59285831   3.02301884  -0.24189991
C    4.42577839   3.96269846   0.87726969
N    4.30539846   4.71355820   1.75466931
H    1.87651932  -2.23899913  -0.13431995
H    1.43136954  -0.86822969  -1.29938960
H    3.61464858  -0.89709967   0.87018967
H    2.69883895   1.27019954  -1.17952955
H    4.87478828   1.21165955   0.99521959
H    3.96076870   3.33463883  -1.08127964
H    5.62977791   3.05082870  -0.59533978

