%chk=mol_4519.chk
# wB97XD/Def2SVP opt pop=full gfinput

C 4 H 8 N 2 O 1

1 2
C    4.575500  -1.799303  -2.754219
C    6.060465  -0.832651  -0.502006
C    5.116244   1.738756   0.253582
N    6.585091   3.688897   0.118486
N    5.508911   5.900537   0.854137
C    6.877526   8.097363   0.827020
O    6.017134  10.147413   1.470264
H    5.235467  -3.681149  -3.301162
H    4.788736  -0.536455  -4.379762
H    2.556384  -1.922475  -2.316540
H    8.076387  -0.738864  -0.956145
H    5.808187  -2.104002   1.110025
H    3.139931   1.859850   0.916253
H    3.687725   5.993210   1.443278
H    8.837682   7.840190   0.169527

