%chk=mol_2718.chk
# wB97XD/Def2SVP opt pop=full gfinput

C 6 H 8 O 1

1 2
C    3.811502  -1.979469  -0.461641
C    6.063545  -0.914835  -0.028516
C    6.546937   1.739531  -0.420634
C    8.801588   2.816523   0.017253
C    9.408701   5.495701  -0.345688
C    8.632288   7.360238   1.665397
O   11.233061   6.770700   1.210011
H    3.532012  -3.986037  -0.139953
H    2.202438  -0.903251  -1.139221
H    7.609530  -2.088563   0.650878
H    4.992090   2.899407  -1.102202
H   10.357948   1.656458   0.697063
H    9.310832   6.115324  -2.299116
H    7.804456   6.672245   3.405797
H    7.961322   9.199074   1.070889

