%chk=mol_0319.chk
# wB97XD/Def2SVP opt pop=full gfinput

C 5 H 11 N 1

1 2
C    5.594686   0.955294  -3.686667
C    5.166360  -0.318986  -1.146138
C    6.362821   1.115184   1.059267
C    9.196579   1.118642   0.945884
C   10.624513   3.450791   0.141918
N   10.573679   2.657881   2.782206
H    4.601653  -0.083620  -5.177169
H    7.601972   0.998853  -4.181530
H    4.881011   2.896327  -3.675328
H    5.905375  -2.252913  -1.220725
H    3.126495  -0.462794  -0.813716
H    5.785151   0.192639   2.823648
H    5.614244   3.047788   1.125256
H    9.993874  -0.727601   0.562194
H    9.578795   5.155740  -0.291188
H   12.395054   3.224137  -0.853363
H   12.234938   1.805010   3.280810

