%chk=mol_3191.chk
# wB97XD/Def2SVP opt freq pop=full gfinput

C 6 H 10 O 1

1 2
C    1.01343966  -0.06791998  -0.46151984
C    2.51599908   0.16324994  -0.30637988
O    3.14113879  -0.44049981  -1.44351935
C    2.97768879   1.61484945  -0.17388994
C    2.15068913   2.67042899  -0.30666989
C    4.38189840   1.88989937   0.13455994
C    5.35839796   0.99012965   0.29922989
H    0.45013982   0.34474987   0.38074985
H    0.80320972  -1.14179957  -0.52016979
H    0.63750976   0.36683986  -1.39433956
H    2.83754873  -0.39503986   0.58134979
H    3.38852882   0.27992991  -2.04804921
H    1.09440958   2.56020904  -0.52744979
H    2.49958920   3.69367862  -0.19820993
H    4.65786791   2.93966889   0.23976991
H    5.19950819  -0.08006997   0.21184991
H    6.37018728   1.31418955   0.52511978

