%chk=mol_0958.chk
# wB97XD/Def2SVP opt pop=full gfinput

C 4 H 5 N 1 O 1

1 2
C    1.931791  -0.017574  -0.009033
C    4.713374   0.174667  -0.011679
N    6.146523   2.210979  -0.015004
C    8.558909   1.266324  -0.016667
C    8.490559  -1.325700  -0.014362
O    6.022595  -2.055115  -0.011301
H    1.069850   1.860965   0.013379
H    1.279137  -1.049932   1.659312
H    1.274072  -1.012534  -1.697938
H   10.195054   2.488316  -0.019407
H    9.885630  -2.813462  -0.014494

