%chk=mol_1808.chk
# wB97XD/Def2SVP opt freq pop=full gfinput

C 4 H 7 N 3

1 2
C    0.97942966  -0.06668998   0.14244995
N    2.43215919   0.04284998   0.17061993
C    3.15324879  -1.21274960  -0.03831999
C    3.05599880   1.25893962  -0.05498998
N    2.52781892   2.43415928  -0.04882998
C    4.49051857   1.32676947  -0.34457988
N    5.62966776   1.31195951  -0.57745975
H    0.52266979   0.63793975   0.84495968
H    0.63930976  -1.06585956   0.43493983
H    0.60186982   0.14037994  -0.86417967
H    2.59635901  -2.06656909   0.36254987
H    4.11953831  -1.20326948   0.47669983
H    3.31839895  -1.38363945  -1.10714960
H    1.53499949   2.37326908   0.17116994

