%chk=mol_1872.chk
# wB97XD/Def2SVP opt freq pop=full gfinput

C 6 H 7 N 1

1 2
N   -1.33051956   0.82766968   0.55912977
C   -1.12574959  -0.38842985  -0.21908991
C   -0.20319992  -1.40360940   0.31505987
C    1.12797952  -1.22232962   0.40931985
C    1.72675931   0.03941999   0.01574999
C    0.96015960   1.04432964  -0.44836986
C   -0.49637982   0.93595970  -0.63212973
H   -2.25698900   1.21350944   0.38468987
H   -1.96904922  -0.75789970  -0.79022974
H   -0.63494974  -2.34396911   0.64407974
H    1.77390933  -1.99422920   0.81300968
H    2.79745889   0.16054994   0.14077994
H    1.42511952   1.99043918  -0.70789969
H   -0.91466963   1.46130955  -1.48231947

