%chk=mol_5298.chk
# wB97XD/Def2SVP opt freq pop=full gfinput

C 4 H 5 N 1 O 2

1 2
C    3.07340884  -1.13400960   0.54441977
O    2.31822920   0.04694998   0.29918990
C    3.07338905   1.15810955   0.15447994
C    2.53406906   2.39276910  -0.08720996
O    3.53197861   3.30778885  -0.18430993
N    4.75555801   2.67708898  -0.00521000
C    4.46124840   1.38865948   0.19669993
H    2.37158918  -1.96679926   0.64495975
H    3.63743877  -1.05380964   1.47984946
H    3.74151850  -1.35572946  -0.29465988
H    1.53118932   2.77124906  -0.21044992
H    5.27140808   0.69483972   0.36227989

