%chk=mol_2946.chk
# wB97XD/Def2SVP opt pop=full gfinput

C 6 H 8 O 1

1 2
C    5.280519  -1.997346  -1.002424
C    4.640487   0.140199   0.820084
C    5.720938   2.707637   0.000000
C    4.756460   4.821579   1.691947
O    3.093425   4.592620   3.294908
C    8.449702   2.707637   0.000000
C   10.698779   2.707637   0.000000
H    4.353438  -3.744946  -0.398222
H    7.315942  -2.358416  -1.064520
H    4.635309  -1.558287  -2.917378
H    5.321431  -0.359237   2.715177
H    2.575149   0.270703   0.955578
H    5.027937   3.150400  -1.903502
H    5.566699   6.705939   1.301587
H   12.713851   2.695827   0.003326

