%chk=mol_0632.chk
# wB97XD/Def2SVP opt pop=full gfinput

C 4 H 6 O 2

1 2
C    1.761300  -0.022223   0.103538
C    4.614938   0.110360  -0.022337
C    5.928600   1.963199   1.771448
O    7.178465  -0.114158   3.056424
C    6.041776  -1.865878   1.565090
O    6.222585  -4.143659   1.652395
H    1.061818  -1.658764  -0.950324
H    0.919163   1.674071  -0.727734
H    1.085421  -0.181943   2.052696
H    5.319862   0.204090  -1.967847
H    4.704775   3.020500   3.059467
H    7.292189   3.239274   0.885280

