%chk=mol_0845.chk
# wB97XD/Def2SVP opt pop=full gfinput

C 4 H 8 O 2

1 2
C    6.379848  -3.694717  -0.831593
O    4.752661  -1.562331  -0.929840
C    5.918036   0.632775   0.128464
O    8.067637   1.402101  -1.302947
C    9.382113   3.457594  -0.467046
C    8.952029   4.920318   1.552240
H    5.330445  -5.341784  -1.505394
H    6.998506  -4.060303   1.107587
H    8.018278  -3.421028  -2.063014
H    6.436029   0.235365   2.096651
H    4.492994   2.135277   0.092408
H   10.955026   3.807590  -1.734976
H    7.396785   4.626673   2.848233
H   10.200420   6.500431   1.947042

