%chk=mol_0009.chk
# wB97XD/Def2SVP opt pop=full gfinput

C 3 H 6

1 2
C    1.842710  -0.019729   0.014778
C    4.662653   0.049605   0.020617
C    6.001241   2.196259  -0.019067
H    1.187428  -1.980433  -0.069995
H    1.079090   0.971565  -1.632005
H    1.082114   0.827832   1.741175
H    5.650149  -1.751795   0.056975
H    5.086274   4.032411  -0.052364
H    8.052917   2.156064  -0.014305

