%chk=mol_4037.chk
# wB97XD/Def2SVP opt freq pop=full gfinput

C 5 H 11 N 1 O 1

1 2
C    0.88906962   0.11164996   0.04949998
C    2.39655900  -0.02290999   0.02030999
C    3.19139886   0.91799968   0.93339962
O    3.97843862  -0.18935993   1.44504941
C    3.01102877  -1.13655961   0.89295965
C    3.71119857  -2.27639914   0.15330994
N    4.44945860  -3.12824869   1.08895957
H    0.41831985  -0.72200978  -0.48187983
H    0.57609975   1.04043961  -0.43831983
H    0.50105983   0.12114996   1.07377958
H    2.77580881  -0.01825999  -1.00924957
H    2.63269901   1.40584946   1.73876929
H    3.81344843   1.65357935   0.41585985
H    2.34677911  -1.50011945   1.68913937
H    4.40860796  -1.87735939  -0.59198976
H    2.97241879  -2.88703871  -0.37545988
H    5.07045794  -2.52487898   1.63439941
H    5.05693817  -3.75604844   0.56510979

