%chk=mol_3775.chk
# wB97XD/Def2SVP opt freq pop=full gfinput

C 5 H 8 O 2

1 2
O    0.78169972   1.86676931  -1.70043933
C    1.89047933   2.34628916  -1.92607927
C    3.13572884   1.95706928  -1.17328954
O    3.90877843   3.13172865  -0.96387964
C    5.13731813   2.86968899  -0.25941992
C    6.37174749   2.76221895  -1.10869956
C    6.13164759   3.99465847  -0.28500989
H    2.04356909   3.03097892  -2.77785873
H    3.69838858   1.24316955  -1.78206933
H    2.85674906   1.51102948  -0.21386991
H    5.09268808   2.28635907   0.65669972
H    6.26669788   2.84693885  -2.18369913
H    7.15084743   2.08169913  -0.78760970
H    6.74391747   4.14786863   0.59539980
H    5.85438776   4.90705824  -0.79966968

