%chk=mol_5509.chk
# wB97XD/Def2SVP opt pop=full gfinput

C 4 H 6 N 2 O 1

1 2
N    2.045251  -0.168960  -0.267321
C    4.547569   0.168564  -0.127160
C    6.043231   2.288912  -0.077592
C    8.568415   1.410114   0.100817
C    8.422812  -1.182156   0.151858
N   10.172642  -3.000450   0.295100
O    5.981361  -1.950538   0.012038
H    0.859240   1.263792   0.187253
H    1.371790  -1.912252   0.159663
H    5.402443   4.224729  -0.163594
H   10.272740   2.527169   0.187007
H    9.618687  -4.786469  -0.130278
H   11.994281  -2.615721  -0.150290

