%chk=mol_6123.chk
# wB97XD/Def2SVP opt pop=full gfinput

C 4 H 5 N 1 O 2

1 2
O    4.092788  -1.699242  -0.766473
C    3.425261   0.507675  -0.579617
C    5.230875   2.493267   0.169168
C    6.967704   3.619865  -1.727247
N    4.852817   5.021059  -0.767871
C    5.233596   7.064911   0.825300
O    6.798989   7.221626   2.520101
H    1.462062   1.105528  -0.936756
H    5.909400   2.358246   2.099920
H    6.788917   3.106785  -3.697060
H    8.812246   4.261937  -1.116205
H    3.898241   8.602506   0.385391

