%chk=mol_0824.chk
# wB97XD/Def2SVP opt pop=full gfinput

C 5 H 10 O 1

1 2
C    2.899936  -0.355042   1.347450
O    5.577923  -0.200594   1.316629
C    6.432439   1.928163  -0.093277
C    9.276930   1.965051  -0.045013
C   10.575077  -0.285575  -1.186559
C   10.590743   3.904344   0.936057
H    2.355506  -2.022120   2.441110
H    2.162187  -0.557809  -0.574080
H    2.086598   1.318915   2.249681
H    5.646729   3.659927   0.733422
H    5.773472   1.784790  -2.053263
H    9.993250  -0.526893  -3.158696
H   10.100983  -2.010309  -0.145282
H   12.636202  -0.088817  -1.162862
H    9.652173   5.529301   1.764948
H   12.642797   3.906687   0.957732

