%chk=mol_1561.chk
# wB97XD/Def2SVP opt pop=full gfinput

C 5 H 6 N 2

1 2
C    1.521513   0.191221   0.127311
C    4.040310  -0.021259   0.041517
N    5.475217  -2.184315  -0.026588
C    4.753738  -4.647385  -0.015363
N    6.233110  -6.575869  -0.091878
C    5.538693   2.219068   0.011338
C    6.808400   4.101329  -0.014400
H    0.607150   2.028111   0.174214
H    0.288845  -1.443241   0.152425
H    7.360106  -1.858432  -0.097302
H    2.696205  -4.955731   0.068843
H    8.077370  -6.008989  -0.166050
H    7.923565   5.777630  -0.035432

