%chk=mol_2365.chk
# wB97XD/Def2SVP opt pop=full gfinput

C 7 H 4

1 2
C    1.889726   0.000000   0.000000
C    4.138803   0.000000   0.000000
C    6.867567   0.000000   0.000000
C    7.778453   2.572238   0.000000
C    8.529203   4.692322   0.000000
C    9.496403   7.419499   0.000000
C   10.255185   9.558651   0.000000
H   -0.124193   0.011168   0.000000
H    7.581563  -1.010096  -1.660200
H    7.581563  -1.010096   1.660200
H   10.925659  11.454443   0.000000

