%chk=mol_6461.chk
# wB97XD/Def2SVP opt freq pop=full gfinput

C 5 H 6 O 1 S 1

1 2
C    0.95340961   0.00147000  -0.00824000
C    2.44325900   0.04264998  -0.00073000
C    3.20483899   1.19464946   0.00182000
S    4.88430834   0.87490970   0.01050000
C    4.62870836  -0.81219971   0.01083000
O    5.67340803  -1.63433933   0.01677999
C    3.28479862  -1.11870968   0.00444000
H    0.52410978   1.00886965   0.00158000
H    0.58317983  -0.53377980   0.87228966
H    0.59192979  -0.51309979  -0.90457970
H    2.85863900   2.21926904  -0.00096000
H    5.32533836  -2.54070902   0.01593999
H    2.90784883  -2.13351917   0.00348000

