%chk=mol_6003.chk
# wB97XD/Def2SVP opt pop=full gfinput

C 5 H 11 N 1 O 1

1 2
O    1.943035   0.043728   0.275050
C    4.630339   0.042235   0.055747
C    5.485629  -2.503339  -0.998985
C    4.808899  -2.774231  -3.793947
N    5.831789  -0.689599  -5.305293
C    4.826663   1.727984  -4.410016
C    5.494813   2.211546  -1.641000
H    1.445489   1.647066   1.022455
H    5.394053   0.289147   1.963936
H    4.597023  -4.048644   0.057467
H    7.538496  -2.689590  -0.770630
H    5.581193  -4.554902  -4.514990
H    2.754011  -2.883741  -4.041312
H    7.752677  -0.680566  -5.158121
H    5.613091   3.247249  -5.576960
H    2.772663   1.783977  -4.682798
H    7.547944   2.443567  -1.464708
H    4.613596   3.986887  -1.039274

