%chk=mol_2381.chk
# wB97XD/Def2SVP opt freq pop=full gfinput

C 6 H 12 O 1

1 2
C    0.96476966  -0.02167999   0.04081998
C    2.48019910   0.00097000   0.01744999
C    3.16681886   1.05854952   0.91719967
C    4.24897814   0.00331000   1.24499953
O    5.45892811   0.07240997   0.46237981
C    3.20683885  -1.08651960   0.86283970
C    3.69208860  -2.31350899   0.11488996
H    0.58550978  -0.88647968  -0.51207978
H    0.55979979   0.88093966  -0.42641982
H    0.57700980  -0.07696997   1.06328964
H    2.84670901   0.04951998  -1.01781964
H    2.58324909   1.36852944   1.79214931
H    3.51686883   1.95329928   0.39448982
H    4.51657820  -0.01853999   2.30709910
H    5.17200804   0.15313993  -0.46253982
H    2.62430906  -1.39956951   1.74173939
H    4.25547838  -2.04791927  -0.78529966
H    2.84433913  -2.93455887  -0.19187993
H    4.33969831  -2.92118883   0.75382972

