%chk=mol_6010.chk
# wB97XD/Def2SVP opt pop=full gfinput

C 4 H 5 N 1 O 2

1 2
O    1.778610  -0.174214   0.011660
C    4.271972   0.055293   0.002438
C    5.814838   2.136203   0.000321
O    4.915669   4.505239   0.008183
C    8.348791   1.322941  -0.011017
C    8.286279  -1.285467  -0.015571
N    5.798114  -2.032438  -0.007313
H    1.152771   1.563881   0.017253
H    6.318375   5.692951   0.004951
H   10.038527   2.471214  -0.015439
H    9.787062  -2.674567  -0.023905
H    5.156193  -3.830475  -0.008145

