%chk=mol_6240.chk
# wB97XD/Def2SVP opt freq pop=full gfinput

C 5 H 11 N 1 O 1

1 2
O    0.88847971   2.28626919  -0.46951982
C    2.29575896   2.32903934  -0.69321978
C    2.99591899   1.33414948   0.23815991
N    4.45033836   1.34824944   0.04149998
C    5.07970810   2.47068930   0.79009968
C    6.18615770   1.48194945   1.20265949
C    5.10417795   0.40669987   0.99075967
H    0.48549983   2.89556885  -1.11380959
H    2.63776898   3.35223866  -0.50616980
H    2.48670912   2.07803917  -1.74211943
H    2.61159897   0.33091986   0.01010000
H    2.69956899   1.53217936   1.27741957
H    4.50782824   2.86681890   1.63884938
H    5.41164827   3.30607867   0.16693993
H    7.02213717   1.42319942   0.49576980
H    6.57464743   1.58513939   2.21837902
H    5.45592785  -0.52556980   0.54000980
H    4.53699827   0.16986994   1.90012932

