%chk=mol_2711.chk
# wB97XD/Def2SVP opt pop=full gfinput

C 6 H 12 O 1

1 2
C    2.131706   0.356875   0.292492
C    4.956128  -0.072811  -0.126801
C    5.417694  -1.336660  -2.681144
C    6.366166   2.388822   0.016365
O    6.967685   3.192617   2.537467
C    9.052884   2.483913   0.961984
C   10.761084   4.603014   0.267831
H    1.788437   1.229059   2.138112
H    1.094737  -1.432488   0.228109
H    1.338965   1.614412  -1.148783
H    5.637129  -1.353894   1.355727
H    4.762771  -0.142844  -4.241037
H    4.429461  -3.150797  -2.797664
H    7.436904  -1.688640  -2.970990
H    5.721618   3.802696  -1.314210
H   10.042024   0.747935   1.391481
H    9.722471   6.360818  -0.068465
H   11.808162   4.135118  -1.452708
H   12.127393   4.942636   1.782465

