%chk=mol_5981.chk
# wB97XD/Def2SVP opt pop=full gfinput

C 5 H 9 N 1 O 1

1 2
O    2.151756   0.127443   0.954123
C    4.356367   0.035735   0.209042
C    5.723508  -2.461387  -0.036887
C    7.556788  -2.409080  -2.250097
C    9.209278  -0.047564  -2.199150
N    7.624913   2.209430  -2.307526
C    5.947951   2.409665  -0.103103
H    4.338698  -3.975133  -0.304151
H    6.734096  -2.804410   1.736791
H    8.748827  -4.101934  -2.205613
H    6.493080  -2.467132  -4.030257
H   10.409443  -0.020844  -0.509999
H   10.466154  -0.064666  -3.843722
H    8.737470   3.781701  -2.392431
H    7.033863   2.712834   1.632043
H    4.677469   4.018314  -0.379570

