%chk=mol_5761.chk
# wB97XD/Def2SVP opt freq pop=full gfinput

C 4 H 7 N 1 O 2

1 2
N    0.91954970  -0.30978990   0.06280998
C    2.27593923  -0.09646996  -0.01313999
C    2.92492890   1.07699955   0.06266998
C    2.34561920   2.45186901   0.22460991
O    0.92136961   2.45035911   0.11992995
C    4.40674829   1.02521968  -0.03481999
O    5.10563803   2.03037930   0.02136999
H    0.66442972  -1.19965959   0.49075982
H    0.42534986   0.47198981   0.50537980
H    2.81460881  -1.03360963  -0.14791994
H    2.72872901   3.13208890  -0.54332978
H    2.60557890   2.85845900   1.20674956
H    0.72463977   2.10790920  -0.77232975
H    4.85272837   0.02397999  -0.16126993

