%chk=mol_5117.chk
# wB97XD/Def2SVP opt freq pop=full gfinput

C 4 H 8 N 2 O 1

1 2
C    1.14640951   0.04146998  -0.48803982
N    2.38464904   0.04769998   0.27855989
C    3.05383873  -1.23676956   0.41993985
C    3.10896897   1.21535957   0.39708987
N    2.70808911   2.39010930   0.04562999
C    3.59275866   3.41745877   0.25487989
O    4.73172855   3.33025861   0.70315975
H    0.51493984   0.89653969  -0.22419992
H    0.56211978  -0.86247969  -0.28615990
H    1.36210954   0.08067998  -1.56069934
H    2.33393908  -2.03670907   0.62188977
H    3.76269865  -1.21973956   1.25445962
H    3.59980869  -1.48300946  -0.49619982
H    4.10684872   1.04004955   0.84352964
H    3.19317865   4.40603828  -0.03004999

