%chk=mol_0561.chk
# wB97XD/Def2SVP opt freq pop=full gfinput

C 4 N 2

1 2
N    0.82331967   0.00000000   0.00000000
C    1.98302925   0.00000000   0.00000000
C    3.51407862   0.00000000   0.00000000
C    4.71409798   0.00000000   0.00000000
C    6.24514771   0.00000000   0.00000000
N    7.40485716   0.00000000   0.00000000

