%chk=mol_2597.chk
# wB97XD/Def2SVP opt pop=full gfinput

C 6 H 12 O 1

1 2
C    3.961641  -0.550704  -2.867319
C    4.689828   0.278281  -0.216600
C    6.108729   2.787157  -0.168488
C    4.600689   5.037235  -1.127052
C    5.859436   7.195415   0.243756
C    6.403507   6.037014   2.799535
O    6.793433   3.384462   2.397212
H    3.042648  -2.402919  -2.806942
H    5.630326  -0.703110  -4.080032
H    2.641535   0.781345  -3.738294
H    5.871417  -1.182628   0.659855
H    2.993515   0.403249   0.968768
H    7.879005   2.614247  -1.234671
H    2.616912   4.904576  -0.542030
H    4.661236   5.232860  -3.183244
H    7.635211   7.688861  -0.704188
H    4.695044   8.899249   0.359785
H    8.070623   6.857552   3.703731
H    4.788680   6.248228   4.076291

