%chk=mol_3576.chk
# wB97XD/Def2SVP opt pop=full gfinput

C 7 H 14

1 2
C    6.093346  -2.113810  -1.341441
C    5.011950  -0.273727   0.590218
C    6.250175   2.363632   0.495845
C    4.889780   4.167111   2.309529
C    9.085482   2.331922   1.004616
C    9.997313   1.335318   3.507313
C   10.736271   3.174702  -0.734593
H    5.053336  -3.900546  -1.275924
H    8.082321  -2.531798  -0.965329
H    5.934364  -1.352477  -3.257661
H    5.181251  -1.095380   2.485481
H    2.979852  -0.075570   0.223290
H    5.930962   3.110017  -1.416161
H    4.928463   3.473525   4.258933
H    2.904056   4.380782   1.763870
H    5.753555   6.047993   2.276799
H    9.440184  -0.639313   3.760782
H    9.223999   2.448367   5.068964
H   12.060969   1.413175   3.663196
H   10.112057   3.900168  -2.549770
H   12.759506   3.162022  -0.393668

