%chk=mol_5953.chk
# wB97XD/Def2SVP opt freq pop=full gfinput

C 5 H 9 N 1 O 1

1 2
O    1.01472962   0.05202998  -0.06987997
C    2.43084908  -0.01458999  -0.05410998
C    2.96775889  -1.13915956   0.83791971
C    3.75065875  -0.28368989   1.83221936
C    4.50005865   0.78765970   0.98759961
C    3.01621866   1.17236948   0.71927971
N    2.81775904   0.85910964   2.21082902
H    0.67395979  -0.85474968  -0.13554996
H    2.80465889  -0.07547997  -1.08108962
H    3.63284874  -1.81065941   0.28500989
H    2.18127918  -1.72593939   1.32266951
H    4.28336859  -0.76909971   2.64997911
H    5.08558798   0.43060982   0.13573995
H    5.09595823   1.51747942   1.54846942
H    2.79207897   2.18980908   0.39928985
H    3.22784877   1.55394936   2.83468890

