%chk=mol_5781.chk
# wB97XD/Def2SVP opt freq pop=full gfinput

C 4 H 10 N 2 O 1

1 2
N    1.17480958   0.18969993  -0.82153970
C    2.63426900   0.13267995  -0.63625979
C    3.12546897   1.33527946   0.19654992
O    2.38814902   1.35886943   1.42408955
C    4.58685827   1.22167957   0.51689982
C    5.63870811   1.60152936  -0.49761981
N    5.39497805   2.43855906   0.67053974
H    0.87723964  -0.63079977  -1.35124958
H    0.94225961   0.99501961  -1.40480947
H    3.13641882   0.10244996  -1.60924947
H    2.86529899  -0.80019969  -0.10981996
H    2.90855885   2.26948905  -0.33612987
H    1.48254955   1.09339952   1.16478968
H    4.80107832   0.41172984   1.20419955
H    5.33020830   2.02501917  -1.44509947
H    6.57224751   1.05261958  -0.51223981
H    6.09543753   2.29704928   1.39952946

