%chk=mol_0054.chk
# wB97XD/Def2SVP opt freq pop=full gfinput

C 4 H 6

1 2
C    0.92945969  -0.14963995   0.22998992
C    2.14218926   0.09781997  -0.27768990
C    2.75782895   1.40093946  -0.23526992
C    3.97041845   1.65002930  -0.74245971
H    0.50363982  -1.14670956   0.17623994
H    0.33304989   0.62163979   0.70726979
H    2.69599915  -0.71260971  -0.74489975
H    2.20319915   2.21245909   0.23260991
H    4.56716824   0.87931967  -1.21975958
H    4.39551830   2.64738894  -0.68829978

