%chk=mol_5049.chk
# wB97XD/Def2SVP opt freq pop=full gfinput

C 7 H 14

1 2
C    0.98157966   2.82309914  -0.57942981
C    2.46123910   2.88953900  -0.23388992
C    3.10746884   1.50361943  -0.26808989
C    4.58845806   1.54722941   0.06288998
C    4.91364813   1.74561930   1.52269948
C    5.50998783   0.64114976  -0.72841972
C    5.53833818   2.12317944  -0.96644962
H    0.54265982   3.82536864  -0.56020981
H    0.43988985   2.20093918   0.13965994
H    0.83048970   2.40525913  -1.57944942
H    2.57499909   3.34057879   0.75870973
H    2.96583891   3.55678868  -0.94338965
H    2.95671892   1.06633949  -1.26294947
H    2.60111904   0.83822972   0.44151986
H    5.99446774   1.75219941   1.70165932
H    4.48157835   0.93703967   2.12064910
H    4.51405859   2.69651914   1.88618934
H    5.08790827   0.01170000  -1.50508952
H    6.36009789   0.19268993  -0.22600991
H    6.40454721   2.67691898  -0.62149978
H    5.13383818   2.49097919  -1.90309930

