%chk=mol_6152.chk
# wB97XD/Def2SVP opt freq pop=full gfinput

C 5 H 9 N 1 O 1

1 2
O    1.42804945   0.51909983  -1.27280951
C    2.14682913   0.13025995  -0.10432997
C    3.26204872   1.09059954   0.16833994
N    3.77512860   1.94510925  -0.90528971
C    3.01898885   2.58069897   0.17487994
C    3.77790880   3.41724849   1.10301960
C    3.43766880   3.68968868   2.36938906
H    0.76983970  -0.17734994  -1.43710947
H    2.55204916  -0.87291968  -0.26841989
H    1.45529950   0.10084996   0.74267972
H    3.99818850   0.68551975   0.85198969
H    3.16515875   1.82375932  -1.72183943
H    2.03668928   2.95448899  -0.09954996
H    4.69622850   3.85490870   0.71601975
H    2.53170896   3.28708887   2.81130886
H    4.06420851   4.32521820   2.98616886

