%chk=mol_5713.chk
# wB97XD/Def2SVP opt freq pop=full gfinput

C 4 H 8 N 2 O 1

1 2
N    1.03144968   0.10681996   0.14690994
C    2.46602917   0.13810995  -0.14182995
C    2.72454906  -0.54369980  -1.45047951
C    3.58333850  -1.55877936  -1.62128937
C    2.90430880   1.58930945  -0.25307992
N    3.76847863   2.09551907   0.57136977
O    3.97098851   3.44173861   0.24270990
H    0.87873966   0.55405980   1.05131960
H    0.75550967  -0.86638969   0.27399990
H    3.01483870  -0.34062988   0.67727977
H    2.16958904  -0.18013993  -2.31387925
H    4.16368818  -1.96277928  -0.79730970
H    3.72236848  -2.00835919  -2.60010910
H    2.43948913   2.19903922  -1.04997957
H    4.63637829   3.72121859   0.89907968

