%chk=mol_6552.chk
# wB97XD/Def2SVP opt freq pop=full gfinput

C 3 H 7 N 1 O 2 S 1

1 2
C    1.02902961   0.07350997  -0.14153996
C    2.50018907  -0.03868998   0.08357996
C    3.13468885  -1.19602954   0.33709988
S    3.41901875   1.44215941   0.06426997
N    4.85454798   1.09740961  -0.75233972
O    2.76603889   2.41953921  -0.77802968
O    3.83990860   1.77567935   1.40662944
H    0.58259976   0.76571971   0.57962978
H    0.52545977  -0.89251965  -0.02854999
H    0.82115966   0.44012985  -1.15171957
H    2.59545898  -2.13726926   0.37480986
H    4.20503855  -1.23595953   0.51794982
H    5.63404799   1.34824944  -0.14137994
H    4.86633825   1.63828933  -1.61896932

