%chk=mol_2532.chk
# wB97XD/Def2SVP opt pop=full gfinput

C 7 H 12

1 2
C    1.884246   0.386884   1.659274
C    4.677261   0.174138   1.293442
C    6.172204   2.144801   0.727960
C    8.910398   2.074522   0.347804
C   10.210663  -0.452287   0.541520
C   10.112945   4.263185  -0.166655
C   12.872475   4.699919  -0.600442
H    1.374757  -0.233117   3.566159
H    0.901796  -0.823051   0.298917
H    1.200808   2.323872   1.408337
H    5.448647  -1.712999   1.519888
H    5.284147   3.992613   0.532771
H    9.396531  -1.794484  -0.809011
H   10.010144  -1.226054   2.451258
H   12.231195  -0.374336   0.133471
H    9.006151   5.996328  -0.289071
H   14.050510   3.039492  -0.277204
H   13.540890   6.185830   0.674538
H   13.179234   5.339062  -2.543137

