%chk=mol_4339.chk
# wB97XD/Def2SVP opt freq pop=full gfinput

C 5 H 9 N 1 O 1

1 2
C    3.13652873  -0.39807984   1.37986946
C    2.91400886   0.17079994  -0.01408999
C    2.91647887   1.67679942  -0.01065000
C    1.78710926   2.40490913  -0.05003998
C    4.25313807   2.33683896  -0.06439998
N    4.36409855   3.50111866   0.62912977
O    5.21471834   1.83478928  -0.62973976
H    3.13704896  -1.49192941   1.34431958
H    2.34116912  -0.08441997   2.06397915
H    4.09450865  -0.07264997   1.79719937
H    1.95855927  -0.20562991  -0.40181983
H    3.68294859  -0.21217991  -0.69595969
H    0.81388968   1.92297935  -0.04541998
H    1.79373932   3.48797870  -0.11539996
H    3.63482857   3.85053849   1.23240960
H    5.27941799   3.92776847   0.67227978

