%chk=mol_4891.chk
# wB97XD/Def2SVP opt freq pop=full gfinput

C 5 H 13 N 1 O 1

1 2
C    1.24769950  -0.77645969   0.15694994
C    2.71927881  -0.74334973  -0.22655991
O    2.81752896  -0.64252979  -1.64957941
C    3.44902873   0.45489985   0.41849986
N    4.84316778   0.58931977  -0.06842998
C    5.38539791   1.88800919   0.34559986
C    5.70027781  -0.48205984   0.44876984
H    1.12345958  -0.87015969   1.23955953
H    0.74664974  -1.62120938  -0.32718986
H    0.73268974   0.12933995  -0.18005992
H    3.18180895  -1.68959939   0.07242997
H    3.71095872  -0.27478990  -1.80981934
H    3.41196871   0.38384986   1.51277936
H    2.90208888   1.36228955   0.12919995
H    4.79537821   2.70659900  -0.08273997
H    6.40867758   2.01604915  -0.02576999
H    5.39642811   2.00284934   1.43604946
H    5.39346838  -1.45780945   0.06053998
H    5.69417810  -0.52448982   1.54426944
H    6.73645735  -0.33918986   0.11821996

