%chk=mol_5950.chk
# wB97XD/Def2SVP opt freq pop=full gfinput

C 4 H 7 N 1 O 2

1 2
O    0.81853974   0.31721988  -0.49014983
C    2.11205912  -0.04324998   0.01229000
C    2.92757893  -0.91918969  -0.88986969
C    3.28823876   0.53093982  -0.73520970
N    4.47564840   0.91736966  -0.04987998
C    4.66953850   2.15525913   0.49363980
O    5.69819784   2.48368907   1.06831956
H    0.39746985   0.99157959   0.07088998
H    2.21173930  -0.21337992   1.07993960
H    2.48200893  -1.23434949  -1.82665932
H    3.55684853  -1.66943944  -0.42658985
H    3.06790876   1.16728961  -1.58982944
H    5.25714827   0.27539989   0.02727999
H    3.80922866   2.83174896   0.36828986

