%chk=mol_4741.chk
# wB97XD/Def2SVP opt freq pop=full gfinput

C 5 H 7 N 1 O 1

1 2
C    1.10704958  -0.08153997   0.57217979
C    2.51999903   0.00000000   0.00000000
N    2.55533910  -0.50456983  -1.35789955
C    2.63172913  -1.84199929  -1.63305938
O    2.70433903  -2.73772907  -0.80559975
C    3.00201893   1.36116946   0.00000000
C    3.39929867   2.48306894   0.00000000
H    1.07575953   0.29829991   1.59966946
H    0.74569970  -1.11568964   0.58431977
H    0.39861983   0.50677979  -0.02334999
H    3.17759871  -0.62766981   0.61328971
H    2.43594909   0.14853995  -2.12026930
H    2.62150908  -2.03894925  -2.71804905
H    3.75856853   3.48656869   0.00465000

