%chk=mol_2915.chk
# wB97XD/Def2SVP opt pop=full gfinput

C 6 H 6 O 1

1 2
C    1.836587   0.034847   0.258571
C    4.624897  -0.180809  -0.197930
C    5.763740  -2.399215  -0.674405
C    6.073032   2.256276  -0.088023
O    4.980676   4.252942   0.354418
C    8.784770   2.346851  -0.495637
C   11.028555   2.447913  -0.829760
H    0.962740   1.268082  -1.154774
H    1.466938   0.816683   2.138509
H    0.892574  -1.804084   0.150951
H    4.684423  -4.143810  -0.746593
H    7.780418  -2.570273  -1.006430
H   13.017114   2.562015  -1.122800

