%chk=mol_3993.chk
# wB97XD/Def2SVP opt pop=full gfinput

C 5 H 7 N 1 O 1

1 2
C    1.921738  -0.125440  -0.011867
C    4.684348   0.179618  -0.000454
C    6.308473   2.206425   0.004233
N    8.762868   1.374417   0.015855
C    8.548668  -1.106680   0.017934
C   10.566688  -3.032179   0.028762
O    6.111733  -1.972628   0.008220
H    0.971735   1.711430   0.004932
H    1.301757  -1.185123   1.652188
H    1.312264  -1.149634  -1.701755
H    5.849326   4.196761  -0.000057
H    9.786344  -4.946831   0.044635
H   11.759917  -2.806130   1.701642
H   11.753851  -2.831112  -1.651602

