%chk=mol_5695.chk
# wB97XD/Def2SVP opt freq pop=full gfinput

C 5 H 7 N 1 O 1

1 2
N    1.10751963   0.08937997  -0.59584981
C    2.25806904  -0.03047999  -0.50431985
C    3.71411848  -0.17035994  -0.38976985
C    4.28759813   0.88004971   0.55900979
C    5.77714777   0.77384973   0.65206981
C    6.49116755   0.91854966   1.97069919
O    6.24145746  -0.36666986   1.38240945
H    4.17363834  -0.06998997  -1.38015950
H    3.96054864  -1.17603958  -0.02957999
H    3.83054852   0.77292973   1.55132949
H    4.03088856   1.88685930   0.20646992
H    6.29703760   1.04353964  -0.25792992
H    5.92374802   1.18268967   2.85434914
H    7.51306725   1.27716947   1.96698928

