%chk=mol_3760.chk
# wB97XD/Def2SVP opt freq pop=full gfinput

C 5 H 4 O 2

1 2
O    0.99749959   0.36033985  -1.06984961
C    1.94227922  -0.03161999  -0.38935986
C    3.07041883   0.86523968   0.01543999
C    4.38072872   0.14539994   0.10991996
O    4.52554798  -1.05916953  -0.05811998
C    5.52943802   0.95604968   0.46117982
C    6.47955751   1.62686932   0.76289970
H    1.93032920  -1.04145968   0.05548998
H    2.82942915   1.28138947   0.99796963
H    3.15698886   1.67447937  -0.71858972
H    7.32900763   2.21070933   1.03144968

