%chk=mol_6380.chk
# wB97XD/Def2SVP opt pop=full gfinput

C 5 H 10 N 2

1 2
C    1.901556   0.250483   0.891459
C    4.572702   0.213199  -0.171738
C    6.428470   1.997478   1.179038
C    7.392231  -0.350582   2.569026
N    6.161773  -1.830332   0.670815
C    5.196142  -4.147968   1.235522
N    6.077869  -5.796943   2.795113
H    0.723973  -1.202282   0.004989
H    1.008226   2.077168   0.502440
H    1.862042  -0.041102   2.941075
H    4.599461   0.385410  -2.235168
H    5.601904   3.462111   2.380431
H    7.827227   2.865675  -0.077687
H    9.440750  -0.603125   2.595614
H    6.601456  -0.606716   4.464251
H    3.499603  -4.637369   0.127670
H    7.697837  -5.106607   3.591765

