%chk=mol_6522.chk
# wB97XD/Def2SVP opt pop=full gfinput

C 5 H 5 N 1 S 1

1 2
C    5.071175  -2.076866   0.766832
C    4.097266   0.217356   0.315036
C    5.522101   2.500486   0.139821
C    4.485095   4.845919  -0.326771
S    6.833779   7.083979  -0.389435
C    9.009326   4.754003   0.205357
N    8.113294   2.448424   0.444501
H    3.868307  -3.731926   0.874376
H    7.088627  -2.343733   1.037649
H    2.063203   0.356289   0.061303
H    2.530457   5.353311  -0.626010
H   11.003724   5.171632   0.371993

