%chk=mol_3993.chk
# wB97XD/Def2SVP opt freq pop=full gfinput

C 5 H 7 N 1 O 1

1 2
C    1.01693964  -0.06637997  -0.00628000
C    2.47884917   0.09504996  -0.00024000
C    3.33829880   1.16758966   0.00224000
N    4.63710833   0.72730970   0.00839000
C    4.52375841  -0.58562976   0.00949000
C    5.59164810  -1.60455930   0.01521999
O    3.23418880  -1.04386961   0.00435000
H    0.51421982   0.90564966   0.00261000
H    0.68885976  -0.62713975   0.87429971
H    0.69441974  -0.60835975  -0.90052962
H    3.09532881   2.22082925  -0.00003000
H    5.17870808  -2.61774921   0.02361999
H    6.22307777  -1.48493946   0.90046966
H    6.21986771  -1.49815941  -0.87398970

