%chk=mol_2300.chk
# wB97XD/Def2SVP opt freq pop=full gfinput

C 6 H 8 O 1

1 2
C    1.02398956  -0.07514998   0.00201000
C    2.48988914   0.17880993   0.00999000
C    3.07883883   1.38964939   0.03974998
C    4.58153820   1.22786951   0.06988997
C    4.81975842  -0.25978991  -0.02964999
O    4.43475819  -1.07462966   1.07823956
C    3.46280885  -0.93231964   0.02921999
H    0.80900967  -1.14834964   0.01527999
H    0.56515974   0.34668988  -0.89751965
H    0.54993975   0.37038988   0.88209969
H    2.57063913   2.34227896   0.05398998
H    5.03096819   1.74429941  -0.78392971
H    4.99983788   1.63291931   0.99627966
H    5.57413769  -0.59387982  -0.72161973
H    3.27702880  -1.77400935  -0.62574971

