%chk=mol_1272.chk
# wB97XD/Def2SVP opt freq pop=full gfinput

C 6 H 15 N 1

1 2
C    1.92328930  -1.34800947   0.26041991
C    3.18026900  -0.75658971  -0.38450986
C    2.88146877  -0.35646987  -1.83100939
C    3.68533874   0.43829983   0.45595983
N    4.89387798   1.09532964  -0.07281997
C    5.15219831   2.33558893   0.66341978
C    6.06921768   0.22559991   0.00006000
H    2.13028932  -1.67660940   1.28435957
H    1.56929946  -2.21745920  -0.30351987
H    1.11092961  -0.61427975   0.29671991
H    3.93991852  -1.54708934  -0.39451987
H    2.13416910   0.44301984  -1.87521935
H    2.49492908  -1.21096957  -2.39685917
H    3.78416848  -0.00730000  -2.34215927
H    3.85617852   0.11030997   1.49044943
H    2.87345886   1.17748952   0.49529982
H    4.30465841   3.02418900   0.57008982
H    6.02224779   2.85718894   0.24829991
H    5.33441830   2.15377927   1.72915936
H    5.95595789  -0.65080976  -0.64545977
H    6.26797771  -0.11675996   1.02213967
H    6.96006727   0.75157970  -0.36297989

