%chk=mol_5491.chk
# wB97XD/Def2SVP opt freq pop=full gfinput

C 4 H 10 N 2 O 1

1 2
N    1.07730961   0.13828994  -0.35513988
C    2.52838898   0.03288999  -0.13582996
C    3.35195875  -0.72580975  -1.13219953
C    3.46720862   0.78015971  -1.07127953
N    2.84050894   1.55951941  -2.18261933
C    4.72495842   1.38832951  -0.48056981
O    5.49876785   1.96121919  -1.53171945
H    0.70779973   0.94881970   0.14347994
H    0.59972978  -0.67262971   0.03906999
H    2.82773900  -0.04884998   0.90664971
H    2.84919906  -1.17630959  -1.98001933
H    4.17696810  -1.32207954  -0.75954974
H    1.82610941   1.42733943  -2.08796930
H    3.06489873   1.10440969  -3.06922889
H    5.34088802   0.65026975   0.04236998
H    4.46398830   2.18569922   0.22281992
H    4.82679844   2.37331915  -2.11138916

