%chk=mol_4352.chk
# wB97XD/Def2SVP opt pop=full gfinput

C 5 H 7 N 1 O 1

1 2
C    5.312833  -2.072349   0.760690
C    4.250844   0.189842   0.356270
C    5.479223   2.535370  -0.408351
C    4.056694   4.613464  -0.703999
N    8.048835   2.502243  -0.790832
C    9.625452   4.402948  -1.539806
O   11.906938   4.096926  -1.802704
H    4.140276  -3.661571   1.325189
H    7.312541  -2.457910   0.562855
H    2.210432   0.302564   0.627124
H    2.028167   4.576123  -0.386071
H    4.803835   6.435065  -1.258898
H    8.987481   0.864493  -0.502497
H    8.718006   6.232940  -1.903049

