%chk=mol_4092.chk
# wB97XD/Def2SVP opt pop=full gfinput

C 4 H 7 N 1 O 2

1 2
C    1.771524  -0.023773  -0.753679
C    4.248142   1.031564   0.067992
N    6.533199  -0.514969  -0.075287
C    6.264895   1.649353  -1.844637
C    8.043392   3.772838  -1.379576
O    9.718465   3.280489   0.492765
O    7.968503   5.730046  -2.591552
H    0.465477   1.512631  -1.213979
H    0.932315  -1.144645   0.768835
H    1.947401  -1.234842  -2.422856
H    4.067768   2.238456   1.716268
H    6.177345  -2.174716  -1.010437
H    5.959100   1.173161  -3.812296
H    9.304935   1.584479   1.144172

