%chk=mol_2452.chk
# wB97XD/Def2SVP opt freq pop=full gfinput

C 6 H 8 O 1

1 2
C    0.92406964   0.07883997  -0.00919000
C    2.40620923   0.01886999  -0.00214000
C    3.27557874   1.09036958   0.00680000
O    4.56333828   0.66824979   0.01249999
C    4.53265810  -0.68599975   0.00654000
C    3.23267889  -1.15014958  -0.00350000
C    2.80892897  -2.57140899  -0.01402999
H    0.56611973   1.11343956  -0.00000000
H    0.51714981  -0.42784983   0.87169969
H    0.52632982  -0.40928987  -0.90469968
H    3.13905883   2.16250920   0.01023000
H    5.49870777  -1.17214966   0.00991000
H    1.71910942  -2.66811895  -0.01018000
H    3.19621873  -3.09223890   0.86764967
H    3.18860865  -3.07613897  -0.90837967

