%chk=mol_4350.chk
# wB97XD/Def2SVP opt pop=full gfinput

C 5 H 5 N 1 O 1

1 2
C    2.122843  -0.190711  -0.712559
C    4.440157   0.534585   0.026607
C    6.801370  -1.014613  -0.268587
C    8.294461  -0.128067  -2.436481
N    9.448347   0.516198  -4.191035
C    4.704284   3.013527   1.313927
O    6.716672   3.715013   2.214060
H    0.458996   0.980881  -0.437528
H    1.821639  -1.996874  -1.642871
H    6.308888  -3.008123  -0.554465
H    7.933127  -0.955427   1.464916
H    2.977188   4.173403   1.444790

