%chk=mol_1404.chk
# wB97XD/Def2SVP opt pop=full gfinput

C 6 H 11 N 1

1 2
C    1.233708  -0.709441   0.772577
C    4.094545  -0.698424   0.495297
C    5.113656   1.988918   0.194188
N    7.863736   1.916523  -0.045013
C    8.905637   4.452365  -0.349354
C   11.658155   4.291152  -0.663388
C   13.909934   4.157794  -0.920202
H    0.542918  -2.646807   0.990160
H    0.324409   0.113176  -0.893481
H    0.645701   0.372182   2.435007
H    4.616488  -1.847982  -1.148576
H    4.937665  -1.595363   2.162924
H    4.576236   3.115308   1.848266
H    4.267247   2.865600  -1.482207
H    8.359619   0.854969  -1.573613
H    8.473135   5.607460   1.314361
H    8.081432   5.384680  -2.005642
H   15.907318   4.027139  -1.135461

