%chk=mol_3709.chk
# wB97XD/Def2SVP opt freq pop=full gfinput

C 7 H 10

1 2
C    1.00094962  -0.05353998   0.00322000
C    2.51999903   0.00000000   0.00000000
C    3.00201893   1.36116946   0.00000000
C    3.39929867   2.48306894   0.00000000
C    3.88131857   3.84423852   0.00000000
C    2.73027897   4.79887819  -0.13512996
C    2.39920902   5.72562790   0.77440971
H    0.65712976  -1.09279966   0.00313000
H    0.58511978   0.44227985  -0.88084966
H    0.58891976   0.44085982   0.88984966
H    2.89539909  -0.53278983  -0.88087964
H    2.89917898  -0.53412986   0.87844968
H    4.56877851   4.00531864  -0.83803970
H    4.44854832   4.04526854   0.91615969
H    2.14005923   4.72346830  -1.04652953
H    2.95442891   5.84234762   1.69997931
H    1.55278945   6.38580799   0.61041981

