%chk=mol_1335.chk
# wB97XD/Def2SVP opt pop=full gfinput

C 5 H 8 N 2

1 2
C    1.754006  -0.346878   0.023905
C    4.545906  -0.774580   0.032976
C    5.640152  -3.039265   0.342929
C    6.218805   1.454031  -0.324012
N    5.365103   3.725028  -0.638898
N    7.341151   5.437857  -0.926060
C    6.474410   7.695267  -1.237412
H    1.211900   0.951590   1.540807
H    0.707986  -2.110371   0.306551
H    1.147328   0.457522  -1.783240
H    4.508943  -4.730419   0.611364
H    7.677409  -3.284571   0.340018
H    8.273013   1.071154  -0.307269
H    7.792097   9.283771  -1.493696
H    4.437285   8.140373  -1.262772

