%chk=mol_0610.chk
# wB97XD/Def2SVP opt freq pop=full gfinput

C 5 H 10 O 1

1 2
C    1.03088963   0.00661000  -0.05184998
C    2.52133918  -0.01135000  -0.01208999
C    3.34841871  -0.74892974  -1.04223967
C    2.73033905  -1.51007950  -2.16534925
C    3.31417894   0.75720972  -1.03900957
O    4.49638796   1.41302943  -0.56058979
H    0.64707977   0.73335975   0.67157978
H    0.63384974  -0.97788960   0.21463993
H    0.63966978   0.28128991  -1.03664958
H    2.88118911  -0.03052999   1.01056957
H    4.25064850  -1.24023962  -0.69436979
H    1.86887920  -0.99575967  -2.60193896
H    2.40155911  -2.49392915  -1.81576931
H    3.46592855  -1.66211939  -2.96159887
H    2.77033877   1.25430954  -1.83673930
H    4.92889786   0.91904962   0.15601994

