%chk=mol_6781.chk
# wB97XD/Def2SVP opt pop=full gfinput

C 6 H 11 N 1

1 2
C    1.837721   0.099400   0.009411
C    4.710898  -0.023905   0.044352
C    5.870056   2.061729   1.673088
N    8.452707   1.182666   2.220107
C    8.162824  -1.545191   2.698661
C    5.870850  -2.338612   1.224826
C    5.010363  -4.715509   1.081301
H    1.045926  -1.348150  -1.239509
H    1.198370   1.942317  -0.682796
H    1.039009  -0.183757   1.898646
H    5.430449   0.152388  -1.894261
H    4.835904   2.325535   3.451830
H    5.904393   3.880326   0.686273
H    9.509385   1.376477   0.619263
H    9.862405  -2.559332   2.097010
H    7.868045  -1.857809   4.723748
H    3.330076  -5.192835   0.008371
H    5.977261  -6.252234   2.038296

