%chk=mol_0060.chk
# wB97XD/Def2SVP opt pop=full gfinput

C 4 H 8 O 1

1 2
C    1.834357  -0.194188  -0.125894
C    4.685576  -0.034676   0.092011
C    5.581400   2.678762   0.013341
C    5.601073   3.977855  -2.518495
O    6.200664   3.804302   1.953674
H    1.206552  -2.156877   0.049756
H    1.180304   0.526875  -1.951199
H    0.913550   0.918388   1.356238
H    5.606005  -1.091581  -1.430183
H    5.309866  -0.874244   1.878596
H    6.581085   2.797702  -3.901793
H    6.608788   5.776345  -2.366258
H    3.664538   4.339699  -3.135207

