%chk=mol_6176.chk
# wB97XD/Def2SVP opt freq pop=full gfinput

C 4 H 6 N 2 O 1

1 2
O    2.53970909  -0.73353970  -1.09146965
C    2.39885902  -0.09983996   0.16847995
C    2.89338899   1.30812955   0.07273997
N    2.12302923   2.34741902  -0.03940998
N    2.95779872   3.50239873  -0.13863994
C    4.18970871   3.11173868  -0.10097996
C    4.34089851   1.64163947   0.03601999
H    1.90690923  -0.29799989  -1.69295931
H    2.99347901  -0.64501977   0.90627962
H    1.34768951  -0.12019995   0.46996981
H    5.05857801   3.77980852  -0.16112994
H    4.84010839   1.21430945  -0.83399969
H    4.84651804   1.37953949   0.96568966

