%chk=mol_2934.chk
# wB97XD/Def2SVP opt freq pop=full gfinput

C 6 H 8 O 1

1 2
C    0.99999964  -0.02328999   0.16672993
C    2.51999903   0.00000000   0.00000000
C    2.91632891  -0.72677970  -1.28852952
C    4.40970850  -0.91110963  -1.36874950
O    4.94920826  -2.01458931  -1.39289951
C    3.00201893   1.36116946   0.00000000
C    3.39929867   2.48306894   0.00000000
H    0.69805974   0.47708982   1.09390962
H    0.62782979  -1.05270958   0.20608991
H    0.49727982   0.48663983  -0.66349977
H    2.96106911  -0.53148979   0.85334969
H    2.59747910  -0.17692994  -2.18168926
H    2.45377922  -1.72027934  -1.32437956
H    5.01254797   0.01032000  -1.43385947
H    3.75052857   3.48983884   0.00644000

