%chk=mol_0246.chk
# wB97XD/Def2SVP opt freq pop=full gfinput

C 4 H 8 N 2

1 2
C    0.19270992   0.92909968  -0.23240991
N   -0.76541972  -0.08508997   0.17976993
C    0.63902974  -0.48798984   0.03670999
C    1.40270948  -0.89600962   1.28782952
C    1.29726946  -2.28155899   1.87807930
N    2.49760914  -1.86546922   1.16878963
H    0.13643995   1.26749957  -1.25923944
H    0.42144987   1.69157934   0.49966979
H   -1.30841947  -0.42851985  -0.61439973
H    0.84751970  -1.09327960  -0.84569973
H    1.57653940  -0.09512997   2.00440931
H    0.66437978  -3.00243902   1.37513947
H    1.37011957  -2.39054894   2.95267892
H    3.24746871  -1.63705933   1.82327938

