%chk=mol_2189.chk
# wB97XD/Def2SVP opt pop=full gfinput

C 6 H 10 O 1

1 2
C    3.599966   0.297443  -1.383280
O    3.097148  -0.159531   1.237015
C    0.938740   0.100477  -0.381781
C   -0.679375   2.355884   0.179524
C   -3.369646   1.370770  -0.234232
C   -3.196056  -1.428406   0.442479
C   -0.637291  -2.235830  -0.636063
H    4.324242   2.140039  -1.899383
H    4.352720  -1.253833  -2.485160
H   -0.435903   2.965528   2.143327
H   -0.273424   3.955102  -1.067091
H   -4.760504   2.383549   0.910810
H   -3.898033   1.577468  -2.227401
H   -4.760107  -2.534935  -0.331798
H   -3.197398  -1.652395   2.502734
H   -0.828909  -2.736342  -2.636395
H    0.131204  -3.864906   0.381611

