%chk=mol_2210.chk
# wB97XD/Def2SVP opt freq pop=full gfinput

C 5 H 8 O 2

1 2
C    1.60377944  -0.12132996  -0.09352996
C    0.72617972  -1.17202950   0.58718979
O   -0.44437984  -1.50389946  -0.16203995
C   -1.42573953  -0.55324978  -0.18048993
C   -1.33491957   0.75096971   0.11990995
C   -0.08368997   1.51042950   0.42769983
O    0.96637964   1.10736966  -0.43886983
H    2.00114918  -0.53103977  -1.02822959
H    2.45930910   0.11192996   0.54940981
H    1.30784941  -2.09503913   0.69340974
H    0.44282982  -0.87503964   1.60521948
H   -2.35863924  -1.00516963  -0.49923980
H   -2.24316907   1.34616947   0.07126997
H    0.20327993   1.44051945   1.48253942
H   -0.26660991   2.56987906   0.21658993

