%chk=mol_6952.chk
# wB97XD/Def2SVP opt freq pop=full gfinput

C 5 H 8 N 2

1 2
C    0.99679965  -0.00071000   0.19730993
C    2.43460917   0.11654995  -0.18699992
C    3.16241884   1.23832953  -0.12335995
C    4.62459803   1.36431944  -0.52272981
N    4.92824793   2.84109879  -0.45804983
C    3.80957866   3.35413885  -0.02799999
N    2.79309893   2.49945903   0.22608991
H    0.81056970  -0.98774964   0.63441980
H    0.35930988   0.10713996  -0.68477970
H    0.70492971   0.74646974   0.94085962
H    2.91134882  -0.79549974  -0.53846979
H    4.79815817   1.00735962  -1.54286945
H    5.27725792   0.83802974   0.18256994
H    3.62254858   4.42481852   0.13761996
H    1.83145928   2.76263905   0.37482986

