%chk=mol_5458.chk
# wB97XD/Def2SVP opt freq pop=full gfinput

C 4 H 7 N 1 O 2

1 2
C    4.30067873   2.79825902  -2.43213892
O    4.30882835   3.51483870  -1.20278955
N    4.03410864   2.61563921  -0.16241995
C    3.89981842   3.28471875   0.93514961
C    3.62615871   2.57848907   2.22509909
C    2.36532903   3.03079891   2.89676905
O    1.72943938   4.02948856   2.57608891
H    4.61325836   3.47678876  -3.23039889
H    3.28977871   2.43888903  -2.64837909
H    4.99950790   1.95682931  -2.39136910
H    4.00150871   4.38456869   0.96854967
H    4.45791817   2.77033877   2.90949869
H    3.55376863   1.50074935   2.04989910
H    2.05210924   2.42447901   3.76393867

