%chk=mol_4104.chk
# wB97XD/Def2SVP opt freq pop=full gfinput

C 5 H 11 N 1 O 1

1 2
C    0.97818965   0.03343999   0.10556996
C    2.48632908  -0.06936997  -0.01723999
N    3.20168877   0.96254963   0.77297974
C    4.19539833  -0.05203998   1.20368946
C    5.49161816   0.06767998   0.41522986
C    3.18816900  -1.16901958   0.81967968
O    3.68547845  -2.32694912   0.11509996
H    0.49843982  -0.81403971  -0.39486983
H    0.61118978   0.94997966  -0.36824986
H    0.64916974   0.03479999   1.15006959
H    2.79091907  -0.06994997  -1.07267964
H    2.65450907   1.33811951   1.54951942
H    4.40470791  -0.01711999   2.28024912
H    5.32219839   0.07973997  -0.66728979
H    6.15321779  -0.77520972   0.64070976
H    6.02371788   0.98717964   0.68269974
H    2.59496903  -1.49571943   1.68441939
H    4.14416838  -1.97490919  -0.66713977

