%chk=mol_3814.chk
# wB97XD/Def2SVP opt freq pop=full gfinput

C 5 H 7 N 1 O 1

1 2
C    0.75153971  -0.07011997   0.02647999
C    2.16861916   0.43140984  -0.01594999
C    1.02571964   1.38886952  -0.20612992
C    0.69670975   2.42303920   0.79076970
C    0.33630988   3.53048849  -0.13106994
N    0.39475986   3.25816894  -1.39195955
O    0.81444967   1.90607929  -1.53637946
H    0.35197988  -0.37753987   0.98509961
H    0.39466983  -0.65616977  -0.81253970
H    2.76928902   0.18631993  -0.88521963
H    2.72501898   0.46397981   0.91270965
H    1.54261947   2.72425890   1.41389954
H   -0.16530994   2.17465925   1.41482949
H    0.03811999   4.51272821   0.26109990

