%chk=mol_0596.chk
# wB97XD/Def2SVP opt freq pop=full gfinput

C 4 H 8 O 2

1 2
C    0.69645977   1.24031961  -0.21705993
C   -0.74982971   1.19838953   0.24388991
O   -1.37607944   0.00252000  -0.21149991
C   -0.66994971  -1.14562964   0.24315991
O    0.66803974  -1.17328954  -0.23886991
C    1.39618945  -0.03643999   0.21521993
H    0.71090972   1.29090953  -1.31211948
H    1.20955944   2.12298942   0.17489994
H   -1.30378962   2.04840922  -0.16705993
H   -0.82280964   1.25225949   1.33704948
H   -0.68866974  -1.20364952   1.33841956
H   -1.18346953  -2.02901936  -0.14606994
H    1.50145948  -0.08495997   1.30575955
H    2.40098906  -0.08303997  -0.21672992

