%chk=mol_6972.chk
# wB97XD/Def2SVP opt pop=full gfinput

C 6 H 7 N 1

1 2
C    3.769380  -1.115732  -2.275589
C    3.993105   0.642923  -0.467310
C    6.134315   2.363424  -0.125553
N    6.711230   4.133719  -2.157179
C    5.648940   5.167588   0.170000
C    7.275427   6.608297   1.785432
C    8.634254   7.820140   3.138174
H    2.120821  -2.331412  -2.371304
H    5.237376  -1.380350  -3.685476
H    2.476146   0.798277   0.914325
H    7.760935   1.557947   0.830913
H    5.362986   4.052915  -3.531199
H    3.715410   5.837440   0.028516
H    9.854260   8.895640   4.324695

