%chk=mol_1771.chk
# wB97XD/Def2SVP opt freq pop=full gfinput

C 5 H 14 N 2

1 2
C    1.08500957  -0.18839994  -0.05421998
N    2.48896909   0.02470999   0.27618989
C    2.90664887   1.43602943   0.17503995
C    2.26212907   2.28126907   1.27850950
C    4.44954824   1.47247946   0.25687993
C    5.03879786   2.87415886   0.07828997
N    6.49777794   2.81058908   0.05169998
H    0.87997967  -1.26341951  -0.06847998
H    0.83565968   0.21162991  -1.04187965
H    0.41976982   0.24946991   0.69446975
H    3.05637884  -0.53504986  -0.36340985
H    2.60855889   1.83375931  -0.80356973
H    2.55586910   1.92854929   2.27328920
H    1.16921949   2.26165915   1.22067964
H    2.55079913   3.33293867   1.19310951
H    4.86286783   0.81924969  -0.52421981
H    4.78026819   1.05798960   1.21956956
H    4.73709822   3.53161883   0.89869970
H    4.68450832   3.31610870  -0.85861969
H    6.83811760   2.40371919   0.92217970
H    6.87706757   3.75705862   0.01326999

