%chk=mol_5922.chk
# wB97XD/Def2SVP opt freq pop=full gfinput

C 4 H 6 N 2 O 1

1 2
N    1.59845936  -0.84575969  -0.64556980
N    2.81833887  -0.31765988  -0.16966994
C    3.24543881   0.93050963  -0.61236972
O    2.64805889   1.57097936  -1.47718942
C    4.55228806   1.39881945   0.00028000
C    4.49586821   1.47730947   1.46907938
C    4.45613813   1.54621947   2.66692901
H    1.71683931  -1.02331960  -1.64915943
H    0.91254961  -0.08030996  -0.62949973
H    3.26660895  -0.76118976   0.63096976
H    4.78937817   2.38505912  -0.41389984
H    5.34382820   0.71164972  -0.31854990
H    4.42037821   1.61710942   3.73069859

