%chk=mol_0594.chk
# wB97XD/Def2SVP opt freq pop=full gfinput

C 4 H 8 O 2

1 2
C    0.70341974   1.17577958  -0.24505991
C   -0.73992968   1.17388952   0.25789991
O   -1.43123949   0.00232000  -0.19908993
C   -0.74149972  -1.17710960   0.24244991
C    0.70152974  -1.17475963  -0.26019990
O    1.39257956  -0.00355000   0.19635993
H    0.73606974   1.20789957  -1.34043956
H    1.24113953   2.04713917   0.14064994
H   -1.27576959   2.05054927  -0.11681996
H   -0.77224976   1.19181955   1.35329950
H   -0.77443969  -1.20905948   1.33794951
H   -1.27957952  -2.04836941  -0.14318995
H    1.23710954  -2.05208921   0.11379996
H    0.73364973  -1.19295955  -1.35572946

