%chk=mol_0658.chk
# wB97XD/Def2SVP opt pop=full gfinput

C 5 H 10 O 1

1 2
C    4.050760  -0.890193  -2.584257
C    4.694665   0.202994  -0.007842
C    6.256222   2.599054  -0.291963
C    4.895090   4.999762  -1.191567
C    5.912764   6.175304   1.234142
O    6.733888   3.737973   2.162621
H    2.963166  -2.636697  -2.373515
H    5.767425  -1.321882  -3.656185
H    2.925523   0.438983  -3.701085
H    5.764647  -1.202168   1.073761
H    2.949314   0.582451   1.041031
H    8.058151   2.259017  -1.262243
H    2.833550   4.878404  -1.275490
H    5.623787   5.820810  -2.940414
H    7.511718   7.463624   0.996264
H    4.491558   7.029101   2.466168

