%chk=mol_7115.chk
# wB97XD/Def2SVP opt freq pop=full gfinput

C 6 H 7 N 1

1 2
C    0.85425967   0.22526991  -0.16579993
C    2.35491920   0.05744998  -0.19599994
C    2.88991880  -1.27998960  -0.43847984
C    2.17346931  -2.39519906  -0.64079976
C    3.13901877   1.13798952   0.00000000
C    4.54501867   1.13798952   0.00000000
N    5.69602823   1.13798952   0.00000000
H    0.55791980   1.26308954   0.02244999
H    0.41177985  -0.38422987   0.62987977
H    0.41199985  -0.06599998  -1.12479949
H    3.97440839  -1.39163947  -0.45858982
H    1.08985960  -2.41492891  -0.64450973
H    2.67797899  -3.34139872  -0.81231970
H    2.68143892   2.10643911   0.17557994

