%chk=mol_0251.chk
# wB97XD/Def2SVP opt pop=full gfinput

C 4 H 6 N 2

1 2
C    0.917424   2.764386   0.631660
C    1.914822   0.562364  -0.822598
C    1.859377  -2.050447   0.289657
N   -0.874150  -2.622656   0.623893
C   -2.025333  -0.648119  -0.273991
N   -0.719286   1.418599  -1.155568
H    1.394240   4.649388   0.005972
H    0.390588   2.549826   2.595633
H    3.074263   0.809880  -2.479793
H    2.828882  -2.117533   2.114660
H    2.704425  -3.431176  -0.996849
H   -4.094942  -0.496658  -0.433125

