%chk=mol_1878.chk
# wB97XD/Def2SVP opt pop=full gfinput

C 5 H 10 N 2

1 2
N    2.755126  -0.734839  -0.744136
C    5.274018  -0.007994   0.130429
C    6.948637  -2.021913   1.238961
C    7.603067  -0.867479  -1.260164
N    9.415390   1.250810  -1.457791
C    7.963230   3.538928  -0.807858
C    5.739249   2.707297   0.860430
H    2.188171   0.392043  -2.199679
H    1.453048  -0.512550   0.658551
H    6.270300  -3.956274   1.231459
H    8.093225  -1.566262   2.871760
H    7.371840  -2.013994  -2.944515
H   10.821989   1.008396  -0.161761
H    9.141380   4.961344   0.122719
H    7.241412   4.367554  -2.564075
H    6.242786   2.828542   2.866544
H    4.089481   3.913944   0.532241

