%chk=mol_6737.chk
# wB97XD/Def2SVP opt freq pop=full gfinput

C 5 H 8 N 2

1 2
C    0.94936961   0.03649998   0.04238999
C    2.44405913   0.05861998   0.01348000
C    3.13935876   1.20463955   0.07077998
C    4.60878801   1.07449961  -0.06997997
N    5.29464817  -0.02418999  -0.00318000
N    4.57237816  -1.13160956   0.30992988
C    3.16864872  -1.25871956  -0.09060996
H    0.56591976  -0.98487961   0.11034995
H    0.54205978   0.48223984  -0.86892968
H    0.56846976   0.58766979   0.90668970
H    2.70237899   2.19063902   0.13577996
H    5.14229822   2.01650929  -0.27913988
H    5.09217787  -1.98198926   0.09399997
H    2.69898891  -1.99854922   0.56702977
H    3.10408878  -1.62764943  -1.12064958

