%chk=mol_3863.chk
# wB97XD/Def2SVP opt pop=full gfinput

C 4 H 6 N 2 O 1

1 2
C    1.976124   2.194690  -0.375186
N   -0.342645   2.542853   1.071607
N   -2.529531   1.534760   0.228392
C   -2.699587  -0.892858  -0.024283
O   -0.967785  -2.779352   0.277091
C    1.664868  -2.513789   0.251107
C    3.007159  -0.412036  -0.138989
H    3.390036   3.499130   0.394367
H    1.712149   2.701364  -2.365427
H   -0.600026   4.438419   1.336150
H   -4.523929  -1.755574  -0.535359
H    2.513222  -4.363737   0.473169
H    5.051692  -0.577406  -0.238162

