%chk=mol_6964.chk
# wB97XD/Def2SVP opt freq pop=full gfinput

C 7 H 12

1 2
C    0.85529971   0.10810996   0.17934993
C    2.36912918   0.03960998  -0.01116000
C    3.14596868   1.02548969   0.92417967
C    4.16780853  -0.09654996   1.18588960
C    3.07861876  -1.10730958   0.78087974
C    2.76451874   0.15548995  -1.45560944
C    2.55041909  -0.84395969  -2.31957912
H    0.58338976   0.06515998   1.24031961
H    0.35153988  -0.72837973  -0.31725988
H    0.44835982   1.04120958  -0.22614992
H    2.59642911   1.32362950   1.82589924
H    3.55550861   1.93075931   0.46500984
H    5.02820826  -0.07816997   0.50719982
H    4.53071833  -0.17709993   2.21368933
H    3.43752861  -1.96865928   0.21002993
H    2.50283885  -1.48528945   1.63543940
H    3.22235870   1.08022964  -1.79743934
H    2.08812928  -1.77960932  -2.01662922
H    2.83542895  -0.74492973  -3.36206889

