%chk=mol_5085.chk
# wB97XD/Def2SVP opt pop=full gfinput

C 5 H 11 N 1 O 1

1 2
C    3.728845  -1.104658   1.105225
N    6.483820  -1.137237   0.974418
C    7.426756   1.216303  -0.157263
C   10.323385   1.302569  -0.248499
C   11.487324  -0.779361  -1.873909
C   11.204526   3.834727  -1.276245
O    9.799005   5.518775  -2.029226
H    3.057520  -2.880151   1.926047
H    2.885706  -0.916272  -0.775411
H    3.052853   0.435298   2.309548
H    7.019898  -2.638813  -0.105503
H    6.751103   2.824555   0.964913
H    6.658110   1.435701  -2.070800
H   11.081071   1.158856   1.676093
H   10.780831  -0.691772  -3.818532
H   11.073738  -2.658334  -1.116205
H   13.548052  -0.588385  -1.956736
H   13.274249   4.116126  -1.284050

