%chk=mol_0988.chk
# wB97XD/Def2SVP opt pop=full gfinput

C 4 H 11 N 1 O 1

1 2
C    2.481475   0.017650   2.082270
C    5.214076   0.015004   1.180871
C    6.108786   2.589360   0.190182
N    6.054966   4.578977   2.146426
C    8.819389   2.408947  -0.862320
O    9.646901   4.860773  -1.621139
H    1.895887  -1.904920   2.574336
H    1.211919   0.714411   0.605071
H    2.237870   1.194175   3.765242
H    5.397436  -1.388023  -0.333461
H    6.435084  -0.622514   2.730541
H    4.863626   3.221359  -1.342197
H    6.988037   3.956047   3.716468
H    4.230549   4.868218   2.708941
H    8.899249   1.158081  -2.505267
H   10.138797   1.703815   0.567806
H    8.850286   6.005588  -0.400093

