%chk=mol_6534.chk
# wB97XD/Def2SVP opt pop=full gfinput

C 4 H 6 N 2 S 1

1 2
C    1.734958  -0.190163   0.051004
C    4.596494   0.050758  -0.040818
C    5.408283   2.747397  -0.060528
N    5.746203   4.183646   1.945152
C    6.494479   6.551907   1.120041
N    6.751255   7.024263  -1.338833
S    6.017171   4.339473  -2.829392
H    1.184745  -2.182369   0.104143
H    0.854118   0.675879  -1.608781
H    0.960699   0.735198   1.734769
H    5.325172  -0.949436  -1.703720
H    5.412875  -0.884411   1.617719
H    6.879642   8.046719   2.463901

