%chk=mol_6542.chk
# wB97XD/Def2SVP opt freq pop=full gfinput

C 6 H 7 N 1

1 2
C    0.97783965   0.01005000   0.03545999
C    2.47489905   0.03630999  -0.02020999
C    3.17769885   1.24153960  -0.05328998
C    4.56268835   1.20176947  -0.11328995
N    5.28252840   0.06002998  -0.14550994
C    4.58283854  -1.09391963  -0.11685995
C    3.19895887  -1.15732956  -0.05673998
H    0.56304979   1.01782966   0.14350995
H    0.64101976  -0.58178979   0.89269966
H    0.57429975  -0.42570984  -0.88397968
H    2.66529894   2.19762921  -0.03240999
H    5.14696836   2.11712909  -0.13890995
H    5.18265820  -1.99897921  -0.14557995
H    2.69983912  -2.12023926  -0.03837999

