%chk=mol_2793.chk
# wB97XD/Def2SVP opt freq pop=full gfinput

C 6 H 14 O 1

1 2
C    0.92587966  -0.06332998  -0.01954999
C    2.46247911  -0.12512995  -0.00948000
C    2.91429901  -0.88499969   1.25292957
C    2.94656873  -0.90066969  -1.24620950
C    3.07791877   1.29681957   0.03420999
C    2.73304915   2.20910931  -1.14037955
O    3.37775874   3.46657848  -0.96886969
H    0.54419982   0.38827986  -0.94070965
H    0.54922980   0.52310979   0.82537973
H    0.49166983  -1.06686962   0.05235998
H    2.58011889  -0.37420985   2.16261911
H    4.00597858  -0.96586961   1.29617953
H    2.50476909  -1.90096927   1.27294958
H    2.57993913  -0.45275983  -2.17521906
H    2.59040904  -1.93677938  -1.22446954
H    4.04061842  -0.92628962  -1.29237950
H    4.17196846   1.22176957   0.10210996
H    2.77252889   1.79831934   0.96295965
H    1.65740943   2.39066911  -1.21533954
H    3.08251882   1.79078925  -2.08779931
H    3.04804873   3.85411859  -0.14004995

