%chk=mol_5378.chk
# wB97XD/Def2SVP opt pop=full gfinput

C 5 H 9 N 1 O 1

1 2
C    4.791703  -1.743027   1.266116
O    4.518675   0.850018   1.914633
C    5.468886   2.529493   0.000000
C    4.415194   5.195103   0.612800
N    5.008946   7.158396  -1.266570
C    8.197651   2.529493   0.000000
C   10.446728   2.529493   0.000000
H    3.870140  -2.872346   2.731467
H    6.787178  -2.282600   1.198804
H    3.878909  -2.149904  -0.544071
H    4.721197   1.941221  -1.842426
H    5.107098   5.813062   2.469078
H    2.353597   5.072724   0.790435
H    6.926905   7.344213  -1.381484
H    4.354288   8.851988  -0.618337
H   12.460533   2.521726   0.007370

