%chk=mol_5559.chk
# wB97XD/Def2SVP opt pop=full gfinput

C 6 H 11 N 1

1 2
C    1.895754   0.088137   0.009411
C    4.769121   0.017518   0.152520
C    5.824646  -2.136109   1.766062
C    7.431783  -0.573381   3.553554
C    8.628697   1.473476   1.839705
N    5.861458   2.266651   1.458887
C    5.669103   1.632383   4.281968
H    1.188052  -1.589732  -0.976289
H    1.257348   1.755518  -1.037006
H    1.006298   0.131752   1.876630
H    5.516356  -0.086209  -1.779064
H    6.980138  -3.441078   0.650878
H    4.369311  -3.203275   2.779031
H    8.570777  -1.481489   5.003768
H    9.618064   0.824166   0.140407
H    9.813272   2.894701   2.778786
H    6.465547   3.075643   5.543511
H    3.784857   1.147026   4.985759

