%chk=mol_3141.chk
# wB97XD/Def2SVP opt pop=full gfinput

C 5 H 10 O 2

1 2
C    5.706122  -2.380280  -0.726354
C    4.553295   0.114706   0.115387
O    3.477342  -0.197401   2.560957
C    6.486523   2.181538   0.214711
C    6.753258   4.019278  -1.946758
C    5.658558   4.884016   0.524191
O    7.294985   6.418134   2.042416
H    6.542666  -2.221675  -2.611205
H    4.269156  -3.869082  -0.756287
H    7.181659  -3.000262   0.588253
H    3.006535   0.612177  -1.169022
H    4.863588  -0.290111   3.763767
H    8.189998   1.619817   1.207176
H    5.484042   3.856440  -3.544805
H    8.641944   4.641451  -2.437425
H    3.641068   5.252229   0.614274
H    6.974129   8.205587   1.757389

