%chk=mol_1464.chk
# wB97XD/Def2SVP opt pop=full gfinput

C 6 H 13 N 1

1 2
C    4.244268  -0.472280  -2.894777
C    4.523400   0.301619  -0.135097
N    5.822681   2.725816   0.147002
C    4.378118   4.881692  -0.809974
C    5.719237   7.141086   0.361353
C    6.993971   6.119349   2.732450
C    6.311723   3.329112   2.804826
H    3.435484  -2.373496  -3.017194
H    6.079608  -0.502327  -3.852169
H    2.989282   0.807763  -3.926813
H    5.631233  -1.170950   0.815795
H    2.657125   0.333045   0.766813
H    2.407171   4.828005  -0.168110
H    4.398848   4.996606  -2.874746
H    7.150572   7.898432  -0.932618
H    4.391610   8.666945   0.799600
H    9.044003   6.372213   2.591174
H    6.348289   7.102082   4.433619
H    7.850546   2.191213   3.592010
H    4.620494   3.051190   3.975568

