%chk=mol_0859.chk
# wB97XD/Def2SVP opt freq pop=full gfinput

C 6 H 10

1 2
C    0.69792974  -0.22729993   0.46252984
C    2.10914922  -0.50526983   0.02059999
C    2.49549913  -1.73741937  -0.35093987
C    3.07508898   0.65718979   0.05648998
C    2.69531894   1.74404931  -0.90892965
C    2.43351912   3.00983882  -0.55365974
H    0.69312978   0.22463991   1.45977950
H    0.09685996  -1.14182961   0.51178980
H    0.20183992   0.45594981  -0.23363991
H    1.80169928  -2.57249904  -0.35990986
H    3.51695871  -1.94593930  -0.65555978
H    4.08876848   0.32294989  -0.19684993
H    3.12821889   1.04248965   1.08238959
H    2.64057899   1.46779943  -1.95987928
H    2.47927904   3.33262873   0.48104981
H    2.16514897   3.75150847  -1.29996955

