%chk=mol_7105.chk
# wB97XD/Def2SVP opt pop=full gfinput

C 6 H 11 N 1

1 2
C    5.044908  -1.881109   2.649188
C    4.588349  -0.413170   0.259119
C    3.106124  -1.301662  -1.597915
C    5.835361   2.045364   0.050493
C    4.450532   4.160119  -0.243718
C    8.697313   2.008325   0.150441
N    9.897195   4.207003  -1.018562
H    7.028345  -2.449614   2.801273
H    3.897485  -3.603953   2.721527
H    4.555412  -0.743003   4.307291
H    2.175075  -3.122886  -1.449439
H    2.788801  -0.237274  -3.325124
H    2.401218   4.114539  -0.302772
H    5.340498   6.002696  -0.387791
H    9.409797   0.318041  -0.816721
H    9.305125   1.894847   2.126225
H    9.404015   4.231853  -2.882002
H   11.805875   3.961754  -0.980806

