%chk=mol_2814.chk
# wB97XD/Def2SVP opt freq pop=full gfinput

C 6 H 6 O 1

1 2
C    0.99999964   0.00000000   0.00000000
C    2.44399905   0.00000000   0.00000000
C    3.63415861   0.00000000   0.00000000
C    5.04015779   0.00000000   0.00000000
C    5.73078775   1.14500964   0.04155998
C    7.20413733   1.11747956   0.04014998
O    7.86050701   2.15033937   0.07772997
H    0.60599977   1.02087963   0.01169000
H    0.60592973  -0.52052981   0.87824970
H    0.60592973  -0.50027978  -0.88993967
H    5.54022789  -0.96336967  -0.03517998
H    5.26372814   2.12228918   0.07719997
H    7.67821741   0.12267995   0.00358000

