%chk=mol_3770.chk
# wB97XD/Def2SVP opt pop=full gfinput

C 5 H 6 O 2

1 2
O    2.056532  -0.042103  -1.280932
C    4.482260  -0.346198  -0.160627
C    5.949689   2.099618  -0.450737
C    8.541714   1.885285   0.702600
O    9.364935  -0.002381   1.755348
C   10.117764   4.114992   0.516330
C   11.430500   5.960744   0.364944
H    1.163882  -1.635841  -1.063424
H    5.450273  -1.913593  -1.103392
H    4.228678  -0.832122   1.835132
H    4.922472   3.650025   0.461377
H    6.132483   2.576717  -2.458420
H   12.608820   7.588686   0.239768

