%chk=mol_6447.chk
# wB97XD/Def2SVP opt freq pop=full gfinput

C 4 H 5 N 1 O 1 S 1

1 2
C    0.95986962   0.04038998   0.01552999
C    2.43710923   0.01148000  -0.04945998
C    3.30869865   1.02737963  -0.10570996
N    4.65585852   0.76652968  -0.18020992
S    4.91578817  -0.88039964  -0.00020000
C    3.18965888  -1.25933957  -0.00741000
O    2.70793915  -2.37710905   0.04550998
H    0.58060974   1.06733966   0.02748999
H    0.60360974  -0.45962980   0.92165965
H    0.52816981  -0.46754983  -0.85256970
H    3.02534890   2.07485938  -0.10108996
H    5.26146793   1.43324947   0.29612988

