%chk=mol_7091.chk
# wB97XD/Def2SVP opt pop=full gfinput

C 6 H 7 N 1

1 2
C    1.605870  -0.498340  -0.802812
C    4.429140  -0.494844  -0.702222
C    5.791047   1.253663   0.525816
C    8.522513   1.216417   0.597021
C    9.891129   2.961465   1.823094
C   12.546780   2.897479   1.875629
N   14.720816   2.845096   1.918639
H    0.875113  -2.254481   0.008617
H    0.971659  -0.375696  -2.767542
H    0.781742   1.086252   0.240959
H    5.361928  -2.027034  -1.703909
H    4.827570   2.776442   1.520096
H    9.470684  -0.314261  -0.401964
H    8.986384   4.500099   2.829166

