%chk=mol_0952.chk
# wB97XD/Def2SVP opt freq pop=full gfinput

C 4 H 7 N 1 O 1

1 2
C    0.98710960   0.01134000   0.00708000
C    2.50507927  -0.02440999  -0.03837999
C    3.10189891  -1.24747956   0.61721975
O    3.30845881  -0.87256968   1.98508930
N    3.50235868   0.53075981   2.01601934
C    3.06489873   0.98643959   0.89265966
H    0.56311977  -0.79356968  -0.60178977
H    0.61285979   0.96554959  -0.37943986
H    0.60623980  -0.09816997   1.02886963
H    2.86862898   0.12111995  -1.05853963
H    4.07687855  -1.50113952   0.18591993
H    2.45539927  -2.12859917   0.56901979
H    3.06361890   2.05447912   0.63253981

