%chk=mol_0677.chk
# wB97XD/Def2SVP opt freq pop=full gfinput

C 5 H 12 O 1

1 2
C    0.98812962  -0.05720998   0.00975000
C    2.50833893  -0.02636999   0.01279000
C    3.03960896   1.40701938   0.00112000
C    4.56598806   1.43391943   0.00607000
C    5.10214806   2.85963893   0.00546000
O    6.52326775   2.84044886  -0.00299000
H    0.63026977  -1.09128952   0.02135999
H    0.58789980   0.43096983  -0.88447970
H    0.58377981   0.45225981   0.88997966
H    2.88105869  -0.56889981  -0.86378968
H    2.87667894  -0.55257976   0.90108961
H    2.65942883   1.94623923   0.87754965
H    2.66527891   1.93031931  -0.88726962
H    4.95912838   0.89900964  -0.86692965
H    4.95161819   0.90029967   0.88354963
H    4.76798820   3.41185880   0.88999969
H    4.76709843   3.40201855  -0.88420969
H    6.81449747   2.37491918   0.79963970

