%chk=mol_0393.chk
# wB97XD/Def2SVP opt pop=full gfinput

C 6 H 8

1 2
C    0.629014  -2.727744   0.096395
C   -2.129589  -1.809186  -0.087627
C   -2.489128   1.006770  -0.006085
C   -0.551290   2.636074   0.024491
C    2.030303   1.775095  -0.028894
C    2.605082  -0.690222   0.007729
H    0.990405  -4.073229  -1.438743
H    0.871050  -3.787786   1.862117
H   -3.224062  -2.664835   1.450648
H   -2.960407  -2.516813  -1.850684
H   -4.415081   1.716004   0.015345
H   -0.883145   4.660858   0.074909
H    3.510280   3.196547  -0.084452
H    4.571607  -1.277115  -0.013889

