%chk=mol_3852.chk
# wB97XD/Def2SVP opt freq pop=full gfinput

C 4 H 6 N 2 O 1

1 2
C    1.83960938  -0.16948994   0.16759993
N    0.98869962  -1.30092955   0.57597977
C   -0.04286999  -0.91098964  -0.40069982
C   -1.31086946  -0.30286992   0.21749991
N   -1.32112956   0.99017960   0.28326988
O   -0.07445998   1.49451947  -0.23035991
C    0.71477973   0.37401986  -0.72009975
H    2.73482895  -0.47017983  -0.38873988
H    2.14312911   0.48167983   0.99232966
H    1.40853941  -2.21513915   0.41681984
H   -0.20134993  -1.59987938  -1.23272955
H   -2.14382911  -0.94159967   0.54310977
H    0.98182964   0.51409984  -1.77186942

