%chk=mol_1600.chk
# wB97XD/Def2SVP opt freq pop=full gfinput

C 5 H 6 N 2

1 2
C    0.82033974   0.53302979  -0.05870998
C    2.27928901   0.25669989   0.10183996
N    2.85957885  -0.88552970   0.28852987
N    1.96279919  -1.95087922   0.33776987
C    2.59277892  -3.06107879   0.52638978
C    3.23121881   1.33673954   0.05360998
C    4.02294874   2.24007916   0.01264000
H    0.63702977   1.60313940  -0.18887994
H    0.28131989   0.18867993   0.82847965
H    0.44104984   0.00105000  -0.93582964
H    2.03138924  -4.00558853   0.59056979
H    3.68972850  -3.12188888   0.62997973
H    4.73177862   3.03397894  -0.02235999

