%chk=mol_1816.chk
# wB97XD/Def2SVP opt pop=full gfinput

C 5 H 10 N 2

1 2
C    1.794219   0.048755   0.261349
N    4.257061  -0.651956  -0.749182
C    4.972115  -3.154860  -0.713050
N    7.160872  -4.139275  -1.100199
C    6.242540   1.294084  -0.579825
C    7.882426   1.921606  -2.819944
C    5.982174   3.804945  -1.895924
H    1.266249   1.966997  -0.305361
H    1.810093  -0.042576   2.328521
H    0.321990  -1.224278  -0.443953
H    3.383895  -4.440743  -0.292832
H    8.418239  -2.727026  -1.498213
H    7.144922   1.315401   1.267912
H    7.500512   0.973455  -4.595587
H    9.864238   2.305693  -2.478262
H    6.674059   5.469151  -0.923849
H    4.344121   4.140315  -3.077362

