%chk=mol_0612.chk
# wB97XD/Def2SVP opt freq pop=full gfinput

C 5 H 6 O 1

1 2
C    0.99635965  -0.04101998  -0.00697000
C    2.46443915   0.10857996   0.00040000
C    3.31036854   1.19696951   0.00265000
C    4.62723827   0.67685974   0.01033000
C    4.49862814  -0.69209975   0.01219000
O    3.18775892  -1.04611957   0.00611000
H    0.50227982   0.93542963   0.00155000
H    0.66371971  -0.59916979   0.87355965
H    0.67105973  -0.58016974  -0.90194964
H    3.01276898   2.23616934  -0.00083000
H    5.55572796   1.22976959   0.01402999
H    5.20301819  -1.51175952   0.01728999

