%chk=mol_3645.chk
# wB97XD/Def2SVP opt pop=full gfinput

C 6 H 10 O 1

1 2
O    5.724642  -1.818408  -1.202659
C    4.672971   0.147172   0.296819
C    6.189609   2.561751  -0.078140
C    6.152041   3.532427  -2.813386
C    6.267522   6.334078  -2.464751
C    5.765195   7.005914  -0.081447
C    5.231896   4.761694   1.546287
H    4.724297  -3.329055  -0.892839
H    4.730873  -0.443708   2.279104
H    2.695675   0.407595  -0.256360
H    8.170911   2.171654   0.418820
H    4.424775   3.012280  -3.827300
H    7.786787   2.834476  -3.870310
H    6.653726   7.641977  -3.987058
H    5.688454   8.934909   0.590029
H    6.264480   4.861642   3.334989
H    3.205845   4.639920   1.948742

