%chk=mol_4544.chk
# wB97XD/Def2SVP opt freq pop=full gfinput

C 4 H 10 N 2 O 1

1 2
C    0.85603964  -0.10540996  -0.07779998
C    2.37975907  -0.14532994  -0.12773995
C    2.90436888  -0.89024967  -1.36991954
N    2.51175904  -2.30162930  -1.42716944
O    2.83482885   1.21721947  -0.17035994
N    4.12380838   1.29303956   0.38198984
C    4.49862814   2.52702904   0.37643987
H    0.52063978   0.48719981   0.78024971
H    0.42627984  -1.10751963   0.00754000
H    0.44726983   0.37832984  -0.97161961
H    2.74607897  -0.62668979   0.78921968
H    3.99839854  -0.82614970  -1.40015948
H    2.55049896  -0.38438988  -2.27619910
H    2.90726900  -2.78963900  -0.62362975
H    2.93651891  -2.72788882  -2.25012922
H    5.48702812   2.80263901   0.77411968
H    3.86890841   3.34468865  -0.01387999

