%chk=mol_3760.chk
# wB97XD/Def2SVP opt pop=full gfinput

C 5 H 4 O 2

1 2
O    1.885002   0.680944  -2.021724
C    3.670377  -0.059753  -0.735784
C    5.802253   1.635067   0.029177
C    8.278380   0.274766   0.207719
O    8.552050  -2.001541  -0.109831
C   10.449127   1.806673   0.871504
C   12.244594   3.074339   1.441672
H    3.647795  -1.968074   0.104861
H    5.346848   2.421476   1.885890
H    5.965847   3.164309  -1.357938
H   13.849822   4.177637   1.949158

