%chk=mol_0441.chk
# wB97XD/Def2SVP opt freq pop=full gfinput

C 4 H 10 N 2

1 2
C    2.18740916  -0.24822991   1.46796942
C    2.41814899   0.15802994   0.02238999
N    3.00656891   1.49532938  -0.05442998
C    2.08591914   2.61956882   0.01122000
C    4.36422825   1.66009939   0.02743999
N    5.03852797   2.75396895   0.04528999
H    1.74936938  -1.25056946   1.51574945
H    1.50497949   0.44558981   1.97110927
H    3.12728906  -0.26012990   2.03091931
H    1.47028947   0.12748995  -0.52763981
H    3.07555866  -0.57217979  -0.46473983
H    1.04048955   2.30081892  -0.06082998
H    2.27397895   3.31343865  -0.81428969
H    2.20663905   3.15607882   0.95776969
H    4.91680861   0.70609969   0.08230997
H    4.40747833   3.55191851  -0.02098999

