%chk=mol_5445.chk
# wB97XD/Def2SVP opt freq pop=full gfinput

C 4 H 10 N 2 O 1

1 2
C    5.89024782  -0.77783972   0.09530997
O    6.28418732   0.41885984  -0.56423974
N    5.43458796   1.45494950  -0.15198994
C    5.79373789   2.59398913  -0.67032975
C    7.00635767   2.77505898  -1.55346942
C    4.98861837   3.83257842  -0.30761987
N    5.63408756   4.50340843   0.82184964
H    6.14501762  -0.71729976   1.15689957
H    6.43350744  -1.61385942  -0.35220987
H    4.81673813  -0.95185965  -0.02578999
H    7.00091743   2.03709936  -2.35952926
H    7.91130733   2.65434909  -0.95133966
H    7.01017714   3.77277851  -2.00021935
H    3.96985865   3.53779864  -0.03651999
H    4.93735838   4.50356865  -1.16952956
H    5.67650747   3.84246874   1.60054946
H    5.03515816   5.26418829   1.13907957

