%chk=mol_6485.chk
# wB97XD/Def2SVP opt freq pop=full gfinput

C 4 H 6 N 2 S 1

1 2
C    1.24590957   0.19323993   0.00495000
C    2.71020913  -0.03718999  -0.00004000
N    3.63537860   0.89892966  -0.00680000
C    4.88080835   0.28028989  -0.00886000
C    6.10943794   1.10747969  -0.01627999
N    4.95597839  -1.05317962  -0.00429000
S    3.38343883  -1.61623943   0.00370000
H    0.67453974  -0.73989975  -0.00718000
H    0.95618963   0.77891976  -0.87339967
H    0.95851964   0.75514972   0.89936966
H    7.01426744   0.49102983  -0.00935000
H    6.13306761   1.75657940   0.86490971
H    6.13424778   1.73872936  -0.91030961

