%chk=mol_4410.chk
# wB97XD/Def2SVP opt freq pop=full gfinput

C 5 H 13 N 1 O 1

1 2
C    0.96320963  -0.82092965   0.27249992
C    2.41061926  -0.39370984  -0.00031000
C    3.17751884  -1.56007946  -0.62477976
C    2.45102906   0.87306970  -0.87728971
O    1.74895930   1.92957926  -0.20638992
C    3.87878847   1.37658954  -1.17753959
N    3.81531858   2.69324899  -1.83320928
H    0.40783983  -0.03557999   0.79553974
H    0.93448967  -1.71653926   0.90284961
H    0.43497983  -1.04733968  -0.66026974
H    2.86330891  -0.16162995   0.97237962
H    2.80318880  -1.78874934  -1.62859929
H    3.07771897  -2.46379900  -0.01340000
H    4.24690819  -1.33991945  -0.69973975
H    1.92489934   0.69051975  -1.82289934
H    2.13003922   2.75193882  -0.58161980
H    4.42160845   0.67582971  -1.81846929
H    4.43527842   1.49631941  -0.24170992
H    3.39191890   2.58727908  -2.75644898
H    4.76709843   3.02148890  -2.00172925

