%chk=mol_3779.chk
# wB97XD/Def2SVP opt freq pop=full gfinput

C 5 H 8 O 2

1 2
O    0.76341969   0.94336963   0.84404969
C    2.16631913   0.97872961   1.06211960
C    2.92828894   1.42095947  -0.17784993
O    2.37227917   1.60598946  -1.25798953
C    4.40051842   1.58816946  -0.01226000
C    5.33319807   1.22977960  -1.14490962
C    5.13280773   2.67014909  -0.76930970
H    0.63639975   0.96816963  -0.12657996
H    2.49795914  -0.02489999   1.34258950
H    2.36783910   1.67602944   1.87986934
H    4.76707792   1.37970948   0.98921961
H    4.90480804   0.89136964  -2.08293915
H    6.28101778   0.76580971  -0.89849967
H    5.94609785   3.18276882  -0.26883990
H    4.56996822   3.29553890  -1.45469940

