%chk=mol_4363.chk
# wB97XD/Def2SVP opt freq pop=full gfinput

C 5 H 13 N 1 O 1

1 2
C    0.97048962  -0.01284999   0.07127997
C    2.51100898   0.01385000   0.06888998
C    3.00954890  -0.55154979   1.41297948
C    3.07429886  -0.87788969  -1.06933963
N    2.69405890  -0.43521982  -2.41468906
C    3.01567888   1.46938944  -0.06334998
O    2.56468916   2.09023929  -1.26147950
H    0.54630977   0.42015985  -0.84041965
H    0.57063979   0.55742979   0.91776967
H    0.59578973  -1.03931963   0.15751994
H    2.64245892   0.04532998   2.25564909
H    4.10454845  -0.55444980   1.45973945
H    2.66664886  -1.58202946   1.56083941
H    2.74114895  -1.91447926  -0.93649966
H    4.16962862  -0.88761967  -1.01715958
H    1.68770933  -0.56854975  -2.53826904
H    3.12788868  -1.05835962  -3.09922886
H    4.11107874   1.50547945  -0.05828997
H    2.66299891   2.08145928   0.77425975
H    2.70105910   1.42481947  -1.97273934

