%chk=mol_2642.chk
# wB97XD/Def2SVP opt pop=full gfinput

C 6 H 10 O 1

1 2
C    4.999686  -0.891800   2.851219
C    4.930541   0.036245   0.131090
C    5.768181   2.711889  -0.117995
C    7.795782   3.595469  -1.309410
O    8.140619   6.173470  -1.248391
C    5.851820   7.111512  -0.099683
C    4.387585   4.878876   0.999136
H    4.433165  -2.879791   2.939620
H    3.704657   0.187763   4.051270
H    6.903415  -0.733762   3.648343
H    3.007046  -0.149402  -0.614803
H    6.133692  -1.194571  -1.023419
H    9.250399   2.563262  -2.291746
H    4.748882   8.081224  -1.561443
H    6.346607   8.494225   1.358467
H    2.397099   4.944166   0.444369
H    4.503160   4.861887   3.064663

