%chk=mol_3431.chk
# wB97XD/Def2SVP opt freq pop=full gfinput

C 5 H 12 O 2

1 2
C    2.38062906  -0.26526991  -0.66658974
O    3.50000882   0.56116980  -0.38219985
C    3.22105885   1.93283927  -0.03006999
C    2.53081894   2.66924882  -1.18606961
C    2.38831925   2.02998924   1.25271952
C    4.60813808   2.56538916   0.23369990
O    5.44683790   2.43271923  -0.91612965
H    2.75573897  -1.26294947  -0.91289967
H    1.82235932   0.10306996  -1.53067946
H    1.72530937  -0.36128986   0.20245993
H    3.04716897   2.48984885  -2.13587928
H    2.49476910   3.74934864  -1.00584960
H    1.49892950   2.32621908  -1.32000959
H    2.82539916   1.41716945   2.04948926
H    1.36607945   1.66731942   1.09884953
H    2.31899929   3.06476879   1.60673940
H    5.11720800   2.05468917   1.05886960
H    4.53041840   3.62929869   0.47989979
H    5.33519793   1.50219941  -1.19555950

