%chk=mol_0935.chk
# wB97XD/Def2SVP opt freq pop=full gfinput

C 4 H 7 N 1 O 1

1 2
C    0.66539973   1.20892954  -0.28303987
O   -0.76310974   1.37955952  -0.19670993
C   -1.35696948   0.06983997  -0.30265990
C   -0.33589986  -0.89575964   0.19858992
N    0.77552974  -1.34566951  -0.63528973
C    0.95449966  -0.16950995   0.21088992
H    0.97597969   1.34549952  -1.32480955
H    1.14193964   1.97547925   0.33457986
H   -2.26841927   0.05507998   0.30138987
H   -1.61928940  -0.11586995  -1.35003948
H   -0.63104975  -1.48446953   1.05321956
H    1.23099959  -2.16176915  -0.22334991
H    1.59841943  -0.22904992   1.07508969

