%chk=mol_1564.chk
# wB97XD/Def2SVP opt freq pop=full gfinput

C 5 H 12 N 2

1 2
C    0.94723964   0.05574998   0.05159998
C    2.48041916  -0.06933998   0.00221000
N    2.88968897  -0.93177968   1.12902963
C    2.93146873  -0.74913973  -1.33530951
N    2.48564911  -2.14617896  -1.44758952
C    3.08675885   1.32029951   0.08765997
C    3.90309858   1.82249939   1.02656960
H    0.56949979   0.62602979  -0.80496973
H    0.61540979   0.57099980   0.96165961
H    0.45662981  -0.92425966   0.03425999
H    2.58392906  -0.49946979   1.99888933
H    3.90620852  -0.97356963   1.15589964
H    4.02776814  -0.73909974  -1.39197946
H    2.55807900  -0.18961993  -2.20059919
H    2.54799891  -2.54589915  -0.50519979
H    3.13957882  -2.66567898  -2.02861929
H    2.80712891   1.98656917  -0.73080975
H    4.23831844   1.25038958   1.88421941
H    4.25651836   2.84723878   0.95427960

