%chk=mol_6425.chk
# wB97XD/Def2SVP opt pop=full gfinput

C 5 H 7 N 1 S 1

1 2
C    1.665019   0.117692  -0.018746
C    4.467502   0.123040  -0.000472
C    6.153629   2.112166   0.014891
C    8.704173   1.207478   0.029234
C   11.016140   2.804335   0.048490
N    8.977578  -1.297202   0.025587
S    6.148337  -2.635374   0.003742
H    0.923679   2.049408  -0.004668
H    0.919219  -0.857671   1.646745
H    0.941858  -0.824847  -1.712867
H    5.609935   4.083075   0.015987
H   10.536243   4.816401   0.022526
H   12.187260   2.406226  -1.610122
H   12.136672   2.436802   1.748545

