%chk=mol_2698.chk
# wB97XD/Def2SVP opt freq pop=full gfinput

C 7 H 8

1 2
C    1.04097962  -0.12115996   0.39043987
C    2.47108912  -0.03412999  -0.08327997
C    3.06824899  -1.13739955  -0.57221979
C    3.15005875   1.26776958  -0.01507999
C    2.74101901   2.27364922   0.77673972
C    4.28453827   1.51934946  -0.85249966
C    5.23067808   1.74150932  -1.55853939
H    0.42205983   0.63683975  -0.10230996
H    0.97917968   0.01839999   1.47476947
H    0.59232980  -1.09503961   0.16380994
H    2.54691887  -2.08837914  -0.62259978
H    4.09450865  -1.13829958  -0.92602968
H    1.89304936   2.18783927   1.44519937
H    3.26284885   3.22628880   0.78787971
H    6.06675768   1.93878925  -2.18785906

