%chk=mol_3527.chk
# wB97XD/Def2SVP opt pop=full gfinput

C 6 H 10 O 1

1 2
O    2.138641   0.077498   0.925966
C    4.754060   0.047678   0.246496
C    5.350344  -2.456606  -1.099424
C    4.762186  -1.938103  -3.835426
C    6.656315  -0.725919  -5.574598
C    4.735654   0.870956  -4.217831
C    5.308940   2.110276  -1.722107
H    1.752645   1.761754   1.552032
H    5.853540   0.284763   1.980773
H    4.201617  -4.018616  -0.377851
H    7.353662  -2.938203  -0.892971
H    3.214802  -3.035977  -4.590542
H    8.615734  -0.630469  -4.986156
H    6.411803  -1.005259  -7.590671
H    3.169468   1.695746  -5.238623
H    7.303999   2.661660  -1.657668
H    4.136195   3.789770  -1.444979

