%chk=mol_1524.chk
# wB97XD/Def2SVP opt pop=full gfinput

C 6 H 13 N 1

1 2
C    1.754290   3.644016   1.190962
C    4.588161   4.041973   1.470264
N    5.910383   2.753425  -0.582905
C    8.664508   2.886821  -0.351243
C    9.825461   1.138088  -2.342051
C    9.636545   5.536350  -0.732874
C   10.977590   6.823518   0.986928
H    0.746328   4.619246   2.711814
H    1.268063   1.634878   1.290116
H    1.063954   4.392234  -0.610967
H    5.189641   3.289635   3.303751
H    4.975101   6.075696   1.448513
H    5.357298   3.465399  -2.282392
H    9.229347   2.163699   1.509041
H    9.315594   1.712356  -4.267210
H    9.188208  -0.814396  -2.073200
H   11.892859   1.141489  -2.211754
H    9.217630   6.437711  -2.532271
H   11.446865   6.012901   2.812631
H   11.627334   8.730515   0.600253

