%chk=mol_6166.chk
# wB97XD/Def2SVP opt freq pop=full gfinput

C 4 H 6 N 2 O 1

1 2
O    1.03958964   0.06883997   0.08382996
C    2.26109910   0.04461998   0.04827998
C    3.03792882   1.33759940   0.05338998
N    4.29276848   1.35031950  -0.31541988
C    4.66215801   2.79750896  -0.21715991
C    3.34498882   3.57702851  -0.08604997
N    2.46349907   2.54039907   0.38851988
H    2.87588906  -0.86694968  -0.00201000
H    5.29497814   2.93931890   0.66611975
H    5.22206831   3.11037898  -1.10366952
H    3.01005888   3.94287848  -1.06234956
H    3.42308879   4.41460800   0.61184973
H    1.46529949   2.61579919   0.21224992

