%chk=mol_1078.chk
# wB97XD/Def2SVP opt pop=full gfinput

C 4 H 9 N 1 O 1

1 2
N    1.931905   0.016176   0.273916
C    4.648802   0.047564  -0.151877
C    5.875215   2.014486   1.609026
C    7.838017  -0.030160   2.328691
O   10.214234   0.034582   0.992465
C    5.898213  -2.034876   1.454220
H    1.034417  -1.488896  -0.528972
H    1.021454   1.582173  -0.383199
H    5.256292   0.127235  -2.126414
H    4.736731   2.643141   3.223608
H    6.639307   3.682188   0.655111
H    8.217229  -0.105390   4.362697
H    9.788970   0.096206  -0.792891
H    6.680125  -3.616218   0.375848
H    4.767174  -2.797796   3.015342

