%chk=mol_0384.chk
# wB97XD/Def2SVP opt freq pop=full gfinput

C 4 H 10 N 2

1 2
C    3.70449877  -1.13188958  -0.94566965
C    3.01333880  -0.29272988   0.11983995
C    3.27107882   1.20062947  -0.04722998
C    4.71399832   1.53849936   0.21931991
N    5.44596767   2.06671929  -0.70900971
N    6.71392727   2.29916906  -0.30324990
H    3.43112874  -2.18588924  -0.83075970
H    4.79376793  -1.05893958  -0.86531967
H    3.41074872  -0.81274974  -1.95068920
H    3.34444880  -0.62666976   1.10987961
H    1.93362927  -0.47239983   0.06252997
H    2.67055893   1.75539935   0.68214977
H    2.98566866   1.53819942  -1.04938960
H    5.10147810   1.31814945   1.23139954
H    7.12585735   3.01736879  -0.90549970
H    7.29298735   1.47412944  -0.48472980

