%chk=mol_3623.chk
# wB97XD/Def2SVP opt pop=full gfinput

C 6 H 10 O 1

1 2
O    4.364890  -1.791404  -0.717340
C    3.628595   0.671155   0.049095
C    5.930187   2.282865   0.208418
C    6.838201   3.760385  -2.047877
C    5.690211   5.127299   0.174100
C    7.335085   6.600738   1.842955
C    6.899182   7.062133   4.293817
H    2.846306  -2.823005  -0.715564
H    2.721338   0.544600   1.903408
H    2.257542   1.404633  -1.316138
H    7.351470   1.436721   1.419373
H    5.748811   3.662308  -3.780699
H    8.861191   3.861145  -2.356281
H    3.827697   5.939919  -0.114158
H    9.042094   7.388262   1.006789
H    5.229288   6.333889   5.233842
H    8.214451   8.176165   5.403653

