%chk=mol_5698.chk
# wB97XD/Def2SVP opt freq pop=full gfinput

C 5 H 9 N 1 O 1

1 2
N    1.45927954  -0.03981999   0.46623981
C    2.65598893  -0.04019998  -0.37554985
C    2.24346924  -0.49138981  -1.74766946
C    2.73824883  -1.56488943  -2.37836909
C    3.33934855   1.30370951  -0.37969986
C    2.69413900   2.59448886   0.06802998
O    3.58112860   1.86120927   0.92634964
H    1.74447930   0.26439992   1.39870954
H    1.14327955  -1.00256968   0.57334983
H    3.36589861  -0.76019973   0.05102998
H    1.48442948   0.10796996  -2.24800920
H    3.49395871  -2.20007920  -1.92300928
H    2.38979912  -1.83660936  -3.37067890
H    4.15600824   1.35238945  -1.08931959
H    1.64085937   2.60362887   0.31970990
H    3.06055903   3.52262878  -0.35175988

