%chk=mol_3848.chk
# wB97XD/Def2SVP opt freq pop=full gfinput

C 4 H 7 N 1 O 2

1 2
C    1.68101943  -0.12196995   0.02525999
C    0.71298975  -1.20720959   0.47708982
O   -0.35185987  -1.26757956  -0.47094983
N   -1.50665951  -0.60874981  -0.00885000
C   -1.34767950   0.65878975   0.24499990
C   -0.06762998   1.48550951   0.21815991
O    1.04075956   1.03318954  -0.52121979
H    2.31981897  -0.51631981  -0.77283967
H    2.33929896   0.17862993   0.84769970
H    1.21739960  -2.17819905   0.50514978
H    0.33311987  -1.01399958   1.48805940
H   -2.24296904   1.19975960   0.59598976
H    0.22710991   1.67707932   1.25715947
H   -0.35185987   2.45783901  -0.19962992

