%chk=mol_5765.chk
# wB97XD/Def2SVP opt pop=full gfinput

C 4 H 7 N 1 O 2

1 2
N    3.880005  -1.639413   2.188303
C    2.831622   0.070355   0.287408
C    4.553390   2.302159  -0.147682
C    3.822935   4.714243   0.097642
O    7.119732   1.775077  -0.659118
C    7.537966   0.491026  -2.858230
O    6.028585  -0.030009  -4.525913
H    2.614908  -3.053986   2.508271
H    4.044581  -0.681265   3.850752
H    0.966311   0.706361   0.925607
H    2.531024  -0.970488  -1.472796
H    1.888214   5.209465   0.557261
H    5.159009   6.247964  -0.165634
H    9.565529   0.028932  -2.951998

