%chk=mol_4497.chk
# wB97XD/Def2SVP opt freq pop=full gfinput

C 4 H 10 N 2 O 1

1 2
C    0.93753964   0.02081999  -0.04103998
C    2.46785903   0.00555000  -0.08849997
C    2.99359870  -0.79650968  -1.28913951
N    2.63197899  -2.21533918  -1.21155965
C    3.01143885   1.42862940  -0.14723994
N    2.72336888   2.21155906   0.93258965
O    3.68808866   1.87628937  -1.06668961
H    0.57046974   0.55564976   0.84056967
H    0.52775979  -0.99264961   0.00217000
H    0.52294981   0.52132982  -0.92289966
H    2.85038900  -0.44682983   0.83636969
H    4.08578825  -0.72078973  -1.34860957
H    2.59362912  -0.38348988  -2.22280908
H    3.11125875  -2.64519906  -0.42081985
H    2.98589897  -2.68962884  -2.04296923
H    2.20322919   1.88472927   1.73473930
H    3.07784891   3.15903878   0.93357968

