%chk=mol_3210.chk
# wB97XD/Def2SVP opt freq pop=full gfinput

C 6 H 10 O 1

1 2
C    2.90012908  -0.16150995   0.68047976
C    4.19461823   0.18975993  -0.02990999
O    4.41148806   1.59119940   0.12156995
C    5.52848816   2.14498901  -0.46274984
C    6.55235767   1.46554947  -1.00566959
C    5.53592777   3.59803867  -0.46052980
C    4.55945826   4.37873840   0.01844999
H    2.65122890  -1.21632957   0.53912979
H    2.07236934   0.45289981   0.30861989
H    2.98677874   0.03842998   1.75449944
H    4.10505867  -0.05899998  -1.09256959
H    5.01405811  -0.37878984   0.42089984
H    6.59743738   0.38347986  -1.02484965
H    7.39955711   1.98073924  -1.44827950
H    6.40761757   4.08400869  -0.89465964
H    3.65804863   3.96522856   0.46233982
H    4.64118862   5.46029806  -0.02703999

