%chk=mol_2542.chk
# wB97XD/Def2SVP opt freq pop=full gfinput

C 5 H 4 O 2

1 2
C    1.09505963  -0.03101999   0.10751996
C    2.40473914  -0.00908000  -0.14680994
O    3.17821884  -1.11426961  -0.42750984
C    4.45865870  -0.62432975  -0.62147981
C    4.61021852   0.69661975  -0.49704981
C    3.26422882   1.19826961  -0.17449993
O    2.95312881   2.35457921   0.02146999
H    0.55597979   0.88669968   0.32034987
H    0.54469979  -0.96419966   0.10655995
H    5.19928837  -1.37068951  -0.85385966
H    5.48773813   1.30589962  -0.59806973

