%chk=mol_7045.chk
# wB97XD/Def2SVP opt pop=full gfinput

C 6 H 7 N 1

1 2
C    1.747883   0.193225  -0.052591
C    4.270479   0.095696  -0.091179
C    5.770732   2.320451  -0.032088
C    7.069579   4.178978   0.020730
C    8.661125   6.365070   0.095072
C    9.031361   7.875547  -2.290632
N    7.505218   8.854406  -0.219813
H    0.633965  -1.527825  -0.096149
H    0.737125   1.978505   0.024151
H    5.234314  -1.714548  -0.167052
H   10.235948   6.280901   1.406523
H    8.004351   7.336351  -3.977344
H   10.843192   8.769350  -2.609296
H    8.472663  10.171980   0.802510

