%chk=mol_3782.chk
# wB97XD/Def2SVP opt freq pop=full gfinput

C 5 H 6 O 2

1 2
O    1.37859952   3.02727890   0.92620963
C    2.07773924   2.02545929   1.04648960
C    2.85774899   1.41089952  -0.09495997
O    4.23174858   1.26225948   0.22338992
C    4.95407820   2.48783922   0.09826996
C    6.35919762   2.24368930   0.43963984
C    7.50927734   2.03985929   0.71731973
H    2.15490913   1.49597943   2.01159930
H    2.72029901   1.99669933  -1.01005960
H    2.44363904   0.41255984  -0.26607990
H    4.53212833   3.24047875   0.77295971
H    4.87892818   2.85416889  -0.93171960
H    8.52894688   1.84971941   0.96347964

