%chk=mol_0241.chk
# wB97XD/Def2SVP opt freq pop=full gfinput

C 4 H 10 N 2

1 2
C    0.72348976   1.19872952  -0.23653992
C   -0.74938971   1.20602953   0.22890992
N   -1.48522949   0.00118000  -0.18177994
C   -0.75007969  -1.20835948   0.21351992
C    0.72210974  -1.19614959  -0.25175992
N    1.45783949  -0.00195000   0.20358993
H    0.77013975   1.27143955  -1.33049941
H    1.23144948   2.08483934   0.15951994
H   -1.25259948   2.08525920  -0.18742992
H   -0.78690970   1.30013943   1.32140946
H   -2.40732908  -0.00057000   0.25044993
H   -0.78812969  -1.31616950   1.30477941
H   -1.25431955  -2.08162928  -0.21391991
H    1.22958958  -2.08747935   0.13333994
H    0.76910973  -1.25517952  -1.34636950
H    1.46617949  -0.00820000   1.22320962

