%chk=mol_1668.chk
# wB97XD/Def2SVP opt freq pop=full gfinput

C 5 H 8 N 2

1 2
C    1.11140954   0.03768999   0.03043999
N    2.48209906   0.03300999   0.52569979
N    3.10731888   1.26178956   0.61644977
C    4.32610846   1.20207953   0.18170995
C    4.68921804  -0.10322996  -0.38259986
C    4.65402794  -1.36590946   0.43067986
C    3.39788866  -0.85678965  -0.21781991
H    0.68954974  -0.97250968   0.05339998
H    1.05647957   0.41589984  -0.99608964
H    0.48124981   0.67017972   0.66437978
H    5.03215790   2.04467916   0.18478993
H    5.15947771  -0.11360995  -1.35569954
H    5.11305809  -2.25335908   0.01306000
H    4.73624802  -1.28999949   1.50902939
H    3.00453877  -1.39532948  -1.07246959

