%chk=mol_6794.chk
# wB97XD/Def2SVP opt freq pop=full gfinput

C 5 H 12 N 2

1 2
C    0.96831965   0.02882999   0.08386996
C    2.49380898   0.02316999  -0.05381998
C    3.02117896  -1.33206952  -0.59634978
N    2.71737909  -1.55557942  -2.01753926
C    3.18606877  -0.41593987  -2.81774879
C    2.67292881   0.94288963  -2.29590917
N    2.96042895   1.17136955  -0.86588967
H    0.61608982   0.99010962   0.47462985
H    0.64833975  -0.74853975   0.78675973
H    0.45787984  -0.15793994  -0.86646968
H    2.90468884   0.15939994   0.95405966
H    2.59304881  -2.15452933  -0.01210999
H    4.10888863  -1.37703943  -0.45409980
H    3.17609882  -2.40790915  -2.33513904
H    4.28308868  -0.41015986  -2.83197880
H    2.85257888  -0.55100977  -3.85172844
H    3.14232898   1.74727929  -2.87384892
H    1.59476936   1.03000963  -2.47410893
H    3.97388864   1.22657943  -0.76412970

