%chk=mol_2357.chk
# wB97XD/Def2SVP opt pop=full gfinput

C 6 H 12 O 1

1 2
C    1.841822  -0.026796   0.205527
C    4.699428   0.021297   0.047054
C    6.075904   2.016206   1.687790
C    8.149632   0.002665   2.214419
C    9.084499  -0.068540   4.929351
O   10.320210   0.089856   0.556071
C    6.137774  -2.034857   1.553827
H    1.085742  -1.661107  -0.813074
H    1.038612   1.678700  -0.646683
H    1.185104  -0.133679   2.164492
H    5.312379   0.097907  -1.936440
H    5.023894   2.620634   3.368153
H    6.701517   3.700424   0.665297
H    7.517368  -0.132432   6.279579
H   10.218543   1.609007   5.358602
H   10.265956  -1.736450   5.255026
H    9.646919   0.124193  -1.151750
H    6.814012  -3.628029   0.423336
H    5.107741  -2.780392   3.190935

