%chk=mol_1961.chk
# wB97XD/Def2SVP opt pop=full gfinput

C 6 H 11 N 1

1 2
N    1.283861   2.193518   0.815889
C    3.250253   1.493583  -0.973417
C    5.699660   2.525770  -0.030897
C    7.738164   3.270511  -1.872926
C    6.373971   5.283145  -0.388131
C    7.683513   6.573261   1.680609
C    9.808888   7.935584   1.476065
H   -0.410732   1.547686   0.173496
H    1.140393   4.112573   0.869652
H    2.780278   2.222204  -2.853732
H    3.369098  -0.566993  -1.101011
H    6.298287   1.583269   1.690114
H    7.350903   3.152611  -3.880742
H    9.675927   2.816599  -1.381673
H    5.045153   6.463525  -1.411909
H    6.818245   6.411274   3.541479
H   10.753354   8.167434  -0.327546
H   10.644884   8.830161   3.120335

