%chk=mol_0302.chk
# wB97XD/Def2SVP opt freq pop=full gfinput

C 4 H 6 N 2

1 2
C    0.98983967   0.01251000  -0.00406000
C    2.47041917   0.04820998  -0.00543000
N    3.23637891   1.11902964  -0.00897000
C    4.52546835   0.65433973  -0.00928000
C    4.54683828  -0.71903974  -0.00597000
N    3.23244882  -1.09363961  -0.00365000
H    0.57986981   1.02724957   0.00782000
H    0.61768979  -0.51566982   0.87919962
H    0.61612982  -0.49570981  -0.89825970
H    5.36785793   1.33404946  -0.01189000
H    5.35402775  -1.43634939  -0.00515000
H    2.87717891  -2.03973913  -0.00107000

