%chk=mol_5282.chk
# wB97XD/Def2SVP opt pop=full gfinput

C 6 H 11 N 1

1 2
C    1.447209   0.117749  -0.038210
C    4.239846   0.049095   0.323786
C    5.960555  -1.646500  -1.198653
C    5.209219  -2.785910  -3.680034
C    5.589319  -0.649215  -5.603605
N    5.294843   1.733332  -4.195041
C    6.025864   1.175542  -1.569474
H    0.679300   1.865746   0.759500
H    0.570471  -1.471813   0.954312
H    0.869841   0.026891  -2.020703
H    4.709916   0.294382   2.305504
H    7.556731  -2.547389  -0.299446
H    6.391507  -4.417632  -4.150387
H    3.237006  -3.411693  -3.637477
H    7.513834  -0.747651  -6.366714
H    4.259651  -0.777830  -7.180184
H    6.402373   3.096978  -4.983737
H    7.645284   2.204555  -0.841835

