%chk=mol_2146.chk
# wB97XD/Def2SVP opt pop=full gfinput

C 5 H 6 N 2

1 2
N    1.635180   0.618829   0.130297
N    4.137990   0.097094   0.102877
C    5.548822   2.103738   0.032579
C    8.368482   2.079757   0.000000
C    9.596501  -0.135418  -0.035262
C    9.696959   4.380744   0.000000
C   10.821498   6.328504   0.000000
H    0.644151  -1.020358  -0.134076
H    1.087197   1.245462   1.875610
H    4.697538   4.015139  -0.010186
H    8.585857  -1.921870  -0.042330
H   11.644681  -0.226351  -0.063589
H   11.833068   8.069263  -0.002532

