%chk=mol_3637.chk
# wB97XD/Def2SVP opt freq pop=full gfinput

C 6 H 6 O 1

1 2
O    1.83150935  -0.74612975  -0.77729970
C    2.00997925   0.13496993   0.06135998
C    3.18418884   1.10506964   0.06770997
C    2.75109887   2.45672894   0.57605976
C    2.94810891   3.38518858  -0.37506986
C    3.50173879   2.75708890  -1.54743934
C    3.65172863   1.44419944  -1.32096958
H    1.35060954   0.18826994   0.94576961
H    3.98873854   0.69712979   0.68659973
H    2.35898924   2.65116906   1.56330943
H    2.73924899   4.44176865  -0.29416990
H    3.74649858   3.27966881  -2.46034908
H    4.03407860   0.72092974  -2.02705932

