%chk=mol_6530.chk
# wB97XD/Def2SVP opt pop=full gfinput

C 5 H 7 N 1 S 1

1 2
C    1.688187  -0.209004   0.060263
C    4.553673  -0.030651  -0.043672
C    5.424251   2.660319  -0.064251
N    5.781995   4.026326   1.985271
C    6.580045   6.419003   1.319747
C    6.825067   6.853356  -1.234690
S    6.031779   4.178487  -2.876825
H    1.094681  -2.190022   0.116105
H    0.818535   0.674330  -1.598141
H    0.939232   0.733233   1.745275
H    5.255782  -1.046096  -1.706574
H    5.355673  -0.980428   1.613429
H    6.961486   7.790150   2.790710
H    7.414492   8.560969  -2.184845

