%chk=mol_4220.chk
# wB97XD/Def2SVP opt freq pop=full gfinput

C 4 H 8 N 2 O 1

1 2
C    0.99511963  -0.01829999  -0.04760998
C    2.51860905   0.03123999  -0.03132999
O    3.02614880  -1.09838951  -0.76442975
N    3.30461884  -0.67314970  -2.08856916
C    3.31778860   0.61760980  -2.07207918
C    3.08683872   1.25377953  -0.74412978
N    4.38385868   1.71876943  -0.23115991
H    0.57039982   0.82133973   0.51038980
H    0.64240980  -0.95201969   0.40292984
H    0.60225976   0.00486000  -1.06924951
H    2.86838889  -0.03966998   1.00479960
H    3.52500868   1.23128951  -2.95979881
H    2.38667893   2.08925915  -0.81577969
H    5.02387810   0.92045963  -0.19696993
H    4.27701855   2.01954937   0.73715973

