%chk=mol_1825.chk
# wB97XD/Def2SVP opt pop=full gfinput

C 5 H 12 N 2

1 2
C    3.407932  -1.434605   0.465440
N    5.985367  -1.065144  -0.501023
C    6.383627  -2.828013  -2.612565
N    6.540701   1.382580  -1.046587
C    8.671991   2.215912  -0.143185
C   10.509693   0.678034   1.411984
C    9.415938   4.898472  -0.751771
H    3.095334  -0.234137   2.123372
H    3.115913  -3.391151   1.075141
H    1.980301  -0.952592  -0.955181
H    6.099809  -4.786676  -2.005812
H    8.331047  -2.688343  -3.301408
H    5.112786  -2.423064  -4.196458
H   11.484528  -0.667791   0.184248
H    9.522330  -0.335993   2.916377
H   11.915082   1.917996   2.282298
H    7.933316   5.843336  -1.837513
H   11.161044   4.885131  -1.857865
H    9.730843   5.938238   1.005618

