%chk=mol_6434.chk
# wB97XD/Def2SVP opt freq pop=full gfinput

C 4 H 8 O 2 S 1

1 2
C    0.92786968   0.04389998  -0.01459999
C    2.44201899   0.00251000   0.01330000
C    3.13885880   1.01397955   0.96373963
C    4.29114866   0.02724999   1.25513947
S    3.20363879  -1.32917953   0.92103964
O    2.44057894  -1.70101941   2.09466910
O    3.81283855  -2.29608917   0.03445999
H    0.53004980  -0.79944974  -0.58792979
H    0.57827979   0.96655965  -0.48872983
H    0.50049978   0.00113000   0.99232966
H    2.84796882   0.03984999  -1.00666964
H    2.55286884   1.26731956   1.85660923
H    3.44715858   1.95185924   0.49154982
H    5.12369823   0.07483997   0.54617977
H    4.67693806   0.04844998   2.27712917

