%chk=mol_3958.chk
# wB97XD/Def2SVP opt pop=full gfinput

C 5 H 7 N 1 O 1

1 2
C    1.746560  -0.119601  -0.128010
C    4.543374   0.115160  -0.040043
C    5.857527   2.277555  -0.061378
C    8.680646   2.226532   0.051495
O    9.628684  -0.054216  -1.059929
N    8.561291  -2.290821  -0.037851
C    6.139833  -2.155837   0.299030
H    1.156040  -2.091719  -0.330381
H    0.975760   0.925682  -1.738265
H    0.900700   0.622098   1.607647
H    4.920223   4.095774  -0.166277
H    9.448744   3.799332  -1.050026
H    9.363045   2.401143   1.997913
H    5.148634  -3.857422   0.979105

