%chk=mol_4388.chk
# wB97XD/Def2SVP opt freq pop=full gfinput

C 4 H 10 N 2 O 1

1 2
C    1.38944948  -0.56863981   0.16916995
C    2.87614894  -0.53373981  -0.14239995
C    3.48384857   0.82918966   0.17376994
C    4.95584822   0.83638966  -0.18451993
N    5.34935808   1.14901960  -1.38448954
N    5.87125778   0.47450984   0.77675968
O    7.16983747   0.89936966   0.46930981
H    0.97721964  -1.55610943  -0.06124998
H    0.84667969   0.17286994  -0.42591983
H    1.20496964  -0.36199984   1.22823954
H    3.03020883  -0.77698970  -1.20044959
H    3.38682890  -1.31302953   0.43580985
H    3.37210870   1.06072962   1.23915958
H    2.97538877   1.61834943  -0.39191985
H    4.53959846   1.37241948  -1.97444928
H    5.61624813   0.58961982   1.75408936
H    7.12707710   1.00366962  -0.51058984

