%chk=mol_4272.chk
# wB97XD/Def2SVP opt pop=full gfinput

C 7 H 14

1 2
C    3.991498  -2.529682  -0.188009
C    3.407403   0.278659  -0.013606
C    5.728856   1.907338   0.438549
C    7.405497   1.198162   2.659997
C    6.069725   1.460399   5.189131
C    7.012849   3.044519  -1.860454
C    5.470946   4.701809  -0.149912
H    2.304067  -3.575494  -0.774561
H    4.583739  -3.287840   1.642172
H    5.496590  -2.901259  -1.557342
H    2.027941   0.606167   1.496474
H    2.477809   0.853249  -1.776834
H    9.094761   2.401729   2.691027
H    8.098686  -0.738807   2.429073
H    5.405788   3.398314   5.481056
H    7.363866   0.982563   6.732301
H    4.436416   0.200462   5.320467
H    6.260190   2.630574  -3.720379
H    9.046950   3.285043  -1.840820
H    6.464149   6.053379   1.029088
H    3.672815   5.396491  -0.848260

