%chk=mol_5004.chk
# wB97XD/Def2SVP opt freq pop=full gfinput

C 6 H 9 N 1

1 2
C   -0.45215982   1.49026942  -0.48072982
N   -1.36949956   0.62865973   0.24866991
C   -1.37284946  -0.74041975  -0.24321991
C   -0.25145990  -1.55769944   0.31130987
C    1.02964962  -1.18875957   0.44495985
C    1.62522948   0.04083999  -0.01208999
C    1.00757957   1.16155958  -0.41326985
H   -0.56903982   2.49861908  -0.06416997
H   -0.75313973   1.56200933  -1.53343940
H   -2.30757928   1.01016963   0.15447994
H   -1.39844954  -0.79859966  -1.33760953
H   -2.30536914  -1.20309961   0.10296996
H   -0.53005981  -2.54888916   0.66226977
H    1.72484934  -1.89693928   0.89317966
H    2.71432900   0.02663999  -0.03657999
H    1.64941943   1.97477925  -0.74971968

