%chk=mol_4844.chk
# wB97XD/Def2SVP opt pop=full gfinput

C 5 H 11 N 1 O 1

1 2
C    1.860624  -0.183360  -0.068862
C    4.693475   0.353473  -0.195492
O    5.637866  -0.764545  -2.460480
C    5.516659   3.103081  -0.158435
C    3.884653   5.061669  -0.177030
C    8.364079   3.422559  -0.024302
N    9.233826   6.042418  -0.045070
H    1.012648   0.584776   1.654795
H    1.523346  -2.226664  -0.101440
H    0.868272   0.590615  -1.713528
H    5.590774  -0.624649   1.395128
H    4.905219   0.181357  -3.856515
H    1.852574   4.816081  -0.239277
H    4.540502   7.004950  -0.083110
H    9.251325   2.442679  -1.617058
H    9.049256   2.531137   1.714756
H    8.868145   6.785912  -1.782711
H   11.149895   6.052490   0.133396

