%chk=mol_4373.chk
# wB97XD/Def2SVP opt freq pop=full gfinput

C 5 H 13 N 1 O 1

1 2
C    2.76214886  -0.95119965  -1.01566958
C    2.45061898   0.07596997   0.06663997
C    3.07277894   1.47386944  -0.15576994
C    2.52580881   2.14026928  -1.42842948
N    2.69868898   2.35051918   0.98162961
C    4.62099838   1.41119945  -0.20792992
O    5.16568804   2.73011899  -0.13873994
H    2.27894926  -1.90309930  -0.77229971
H    3.83643842  -1.13810956  -1.09478962
H    2.38919902  -0.63344973  -1.99287927
H    2.79470897  -0.33019987   1.02743959
H    1.35895956   0.16741993   0.14669994
H    2.85682893   1.61371934  -2.33014917
H    2.86748886   3.17809892  -1.52090943
H    1.42942953   2.15347934  -1.43224955
H    2.96574903   1.90057921   1.85856926
H    1.68222928   2.43928909   1.01801968
H    4.98063803   0.94735962  -1.13162959
H    5.02104807   0.84559965   0.64094973
H    4.52080822   3.22666883   0.40841985

