%chk=mol_1527.chk
# wB97XD/Def2SVP opt pop=full gfinput

C 6 H 15 N 1

1 2
C    3.311254  -0.943502  -1.284485
C    6.047974  -0.242055  -0.763865
N    6.283982   2.501563  -0.530673
C    8.896982   3.242959  -0.020749
C    9.146086   6.130574   0.259932
C   11.859506   6.817546   0.988270
C    8.397773   7.530596  -2.158615
H    3.127308  -2.995632  -1.478011
H    2.636357  -0.075873  -3.038113
H    2.072387  -0.336844   0.258326
H    7.226199  -0.931257  -2.320357
H    6.668239  -1.175750   0.978462
H    5.142398   3.133563   0.889059
H   10.125814   2.593536  -1.559364
H    9.548522   2.336571   1.727607
H    7.898829   6.768167   1.790383
H   13.202175   6.230371  -0.474000
H   12.400137   5.897174   2.761419
H   12.055546   8.860548   1.254495
H    9.559237   6.928454  -3.762823
H    8.641888   9.573182  -1.926387
H    6.414014   7.196984  -2.640666

