%chk=mol_1939.chk
# wB97XD/Def2SVP opt pop=full gfinput

C 5 H 12 N 2

1 2
N    1.863818  -0.019011   0.232644
C    4.630831  -0.005140   0.029744
C    5.546668  -2.559275  -0.982847
C    4.928255  -2.865297  -3.788769
C    5.899234  -0.623402  -5.331503
N    4.958774   1.793634  -4.379988
C    5.601848   2.147825  -1.707538
H    1.225450   1.744576   0.653127
H    1.311432  -1.193381   1.648899
H    5.402822   0.292000   1.929883
H    4.723673  -4.123496   0.098247
H    7.601915  -2.687096  -0.729189
H    5.781523  -4.614957  -4.497019
H    2.879773  -3.054270  -4.044543
H    7.972547  -0.616637  -5.336549
H    5.295769  -0.846824  -7.299559
H    5.698034   3.232074  -5.420321
H    7.662140   2.303633  -1.512990
H    4.816477   3.956916  -1.070209

