%chk=mol_1527.chk
# wB97XD/Def2SVP opt freq pop=full gfinput

C 6 H 15 N 1

1 2
C    1.75223935  -0.49927983  -0.67971975
C    3.20044875  -0.12808995  -0.40421987
N    3.32533860   1.32376957  -0.28081989
C    4.70807838   1.71609938  -0.01098000
C    4.83989811   3.24415874   0.13754995
C    6.27577782   3.60768867   0.52296984
C    4.44390821   3.98501849  -1.14228964
H    1.65489948  -1.58521938  -0.78212970
H    1.39509940  -0.04014998  -1.60769939
H    1.09665954  -0.17824993   0.13669996
H    3.82393837  -0.49279979  -1.22787952
H    3.52867866  -0.62217975   0.51777983
H    2.72123909   1.65820944   0.47046983
H    5.35834837   1.37243950  -0.82517970
H    5.05285835   1.23645949   0.91420966
H    4.17987823   3.58155870   0.94742966
H    6.98628759   3.29696894  -0.25082991
H    6.56186724   3.12064886   1.46127951
H    6.37951756   4.68879843   0.66384971
H    5.05852842   3.66637850  -1.99119925
H    4.57308817   5.06590796  -1.01939964
H    3.39414859   3.80847859  -1.39737952

