%chk=mol_0268.chk
# wB97XD/Def2SVP opt freq pop=full gfinput

C 5 H 9 N 1

1 2
C    0.99961960   0.03230999   0.02850999
C    2.48214912  -0.02324999  -0.01828999
C    3.26171875  -1.10311961  -0.08842997
C    4.69287777  -0.71057969  -0.07869997
N    4.70107841   0.76040971  -0.18734993
C    3.31394863   1.20977950   0.04369998
H    0.55862981  -0.96853960  -0.01998999
H    0.61296982   0.61189979  -0.81546974
H    0.66411972   0.50447983   0.95697963
H    2.91994882  -2.12770915  -0.11926995
H    5.17270803  -1.02205968   0.85466969
H    5.23381805  -1.15845954  -0.91831964
H    4.94083834   0.99414968  -1.14970958
H    3.01982880   1.93449926  -0.72244972
H    3.23527884   1.68366933   1.02770960

