%chk=mol_6659.chk
# wB97XD/Def2SVP opt freq pop=full gfinput

C 5 H 8 N 2

1 2
C    0.85761970  -0.09532996   0.02455999
C    2.19907904  -0.06352998   0.00074000
C    2.93582892   1.25091946  -0.07666997
C    4.47288847   1.19030952  -0.01753999
N    5.11508846  -0.13381995  -0.04622998
C    4.34462833  -1.15546954  -0.01275000
N    2.98461890  -1.18384957   0.02855999
H    0.27531990   0.81997973  -0.00629000
H    0.30652988  -1.02855968   0.06971997
H    2.59149909   1.90274930   0.73559976
H    2.65115905   1.75418937  -1.00889957
H    4.81447792   1.70711935   0.88911968
H    4.87516832   1.77169931  -0.85792971
H    4.78518820  -2.16559935  -0.01650999
H    2.51381922  -2.07931924   0.05232998

