%chk=mol_4550.chk
# wB97XD/Def2SVP opt pop=full gfinput

C 6 H 13 N 1

1 2
C   -2.880925   1.424154   0.251031
C   -2.897857  -1.419865  -0.186214
C   -0.571283  -2.819131   0.789187
C    1.806370  -2.245562  -0.742511
N    3.240635  -0.016913  -0.006898
C    1.838193   2.242500   0.705832
C   -0.569866   2.804505  -0.785578
H   -4.575537   2.221997  -0.637915
H   -3.063284   1.805955   2.280767
H   -3.133657  -1.799700  -2.211339
H   -4.575783  -2.206236   0.744401
H   -0.273746  -2.446062   2.805355
H   -0.954198  -4.851343   0.629033
H    3.087888  -3.867136  -0.581941
H    1.343180  -2.117533  -2.758660
H    4.463458  -0.464873   1.413761
H    1.405144   2.171749   2.731788
H    3.133525   3.841454   0.461792
H   -0.942765   4.839211  -0.638198
H   -0.312466   2.411215  -2.803900

