%chk=mol_0134.chk
# wB97XD/Def2SVP opt freq pop=full gfinput

C 5 H 10

1 2
C    2.21797919  -0.59364980   1.41748941
C    2.71262884  -0.09849996   0.06739997
C    3.15254879   1.33548939   0.13683996
C    4.40528870   1.74724936  -0.11175996
C    4.84284782   3.17449880  -0.04901998
H    1.89067924  -1.63532937   1.34091949
H    1.36984956   0.00150000   1.77209938
H    3.01019883  -0.54206979   2.17178917
H    1.90609920  -0.18337993  -0.67005974
H    3.52924871  -0.74415970  -0.27669990
H    2.38745928   2.06448913   0.39706987
H    5.17135811   1.02146959  -0.37664986
H    4.02354860   3.84732866   0.22282992
H    5.23309803   3.48739862  -1.02217960
H    5.63833809   3.28766870   0.69370973

