%chk=mol_2368.chk
# wB97XD/Def2SVP opt pop=full gfinput

C 6 H 10 O 1

1 2
C    1.746372   0.165124   0.767153
C    4.467558   0.287257  -0.187404
C    6.194617   2.059972   1.361793
C    7.419764  -0.360409   2.323437
O    5.862913  -1.910003   0.707098
C    4.594170   0.750335  -2.971632
C    4.737185  -1.163504  -4.618491
H    1.679513  -0.183001   2.807283
H    0.697158  -1.363192  -0.155921
H    0.748143   1.942733   0.403192
H    5.257785   3.192220   2.815578
H    7.473791   3.272949   0.279509
H    9.426616  -0.571680   1.878407
H    7.092180  -0.785332   4.319498
H    4.539746   2.690649  -3.637742
H    4.787395  -3.119711  -3.992368
H    4.818707  -0.814548  -6.637474

