%chk=mol_3599.chk
# wB97XD/Def2SVP opt pop=full gfinput

C 5 H 8 O 2

1 2
O    1.756463   0.220304  -0.586533
C    4.321974   0.007086   0.184702
C    5.783072   2.398289  -0.506012
C    6.714745   2.242311  -3.225044
O    8.272503   0.067312  -3.664576
C    7.248838  -2.133425  -2.765784
C    5.389707  -2.279898  -1.063292
H    0.953820   1.428142   0.540537
H    4.340323  -0.254414   2.239193
H    4.608551   4.086967  -0.261481
H    7.424602   2.562412   0.747292
H    7.860675   3.910750  -3.663007
H    5.136200   2.214532  -4.567015
H    8.160121  -3.762955  -3.599267
H    4.656361  -4.109285  -0.499455

