%chk=mol_2693.chk
# wB97XD/Def2SVP opt freq pop=full gfinput

C 6 H 8 O 1

1 2
C    3.03847885  -1.00416958  -2.34217906
C    3.31232882  -0.53177983  -1.27436948
C    3.64571857   0.04450998   0.03845998
C    4.43815804   1.33575940  -0.11905996
C    3.68877864   2.57658911  -0.62959975
C    4.21535873   3.24564862   0.63545978
O    4.65630817   1.97535920   1.17254961
H    2.79408908  -1.42816949  -3.28940868
H    4.23532820  -0.67949975   0.61257976
H    2.72481894   0.22573991   0.60512978
H    5.40517807   1.17559958  -0.61493981
H    2.59944892   2.48752904  -0.66886973
H    4.06260872   2.99404883  -1.56750941
H    5.05790806   3.92860842   0.49196982
H    3.45632863   3.71394849   1.26745951

