%chk=mol_1081.chk
# wB97XD/Def2SVP opt pop=full gfinput

C 6 H 10

1 2
C    4.015895  -1.464519  -2.206274
C    5.459740  -0.479688   0.074795
C    5.696201   2.346700   0.010205
C    7.916365   3.570713  -0.083885
C    8.099895   6.290823  -0.130221
C   10.308022   7.519145  -0.221929
H    3.841870  -3.523489  -2.106383
H    4.989916  -0.989895  -3.969464
H    2.107819  -0.666941  -2.288761
H    7.323199  -1.381976   0.142882
H    4.462569  -1.022153   1.806881
H    3.937018   3.408008   0.065517
H    9.671108   2.501261  -0.128766
H    6.354204   7.375941  -0.086927
H   12.105906   6.533520  -0.267869
H   10.356663   9.569554  -0.253242

