%chk=mol_0350.chk
# wB97XD/Def2SVP opt pop=full gfinput

C 5 H 13 N 1

1 2
C    1.909115  -0.002173  -0.025474
C    4.819274  -0.070770   0.019313
C    5.672863  -1.484229   2.413142
C    5.751041  -1.513160  -2.327689
C    5.804010   2.688400   0.006576
N    8.555451   2.901032   0.001814
H    1.209444   0.968466  -1.715890
H    1.159253   0.991785   1.629379
H    1.112104  -1.913745  -0.024944
H    5.102922  -0.465156   4.123250
H    7.727203  -1.726832   2.471762
H    4.831274  -3.374994   2.499975
H    5.193194  -0.542238  -4.069506
H    4.954163  -3.423995  -2.391883
H    7.812015  -1.703683  -2.340067
H    5.069228   3.705621   1.656477
H    5.084251   3.671700  -1.669630
H    9.269598   2.172448   1.634254
H    9.048387   4.762998  -0.009297

