%chk=mol_5226.chk
# wB97XD/Def2SVP opt freq pop=full gfinput

C 5 H 8 N 2

1 2
C    1.26543951   0.12292995   0.58553982
C    2.58712888  -0.14745994  -0.05228998
C    3.33846879   0.97063965  -0.71479970
N    3.80593872   0.41701984   0.56262976
C    4.66194820  -0.65706980   0.50073981
N    4.31797838  -1.77734935  -0.06234998
C    2.89820910  -1.57024932  -0.46118981
H    1.16102946   1.17160952   0.88312966
H    1.13588965  -0.49378982   1.48068941
H    0.45506984  -0.11114996  -0.11195996
H    2.97846889   1.98558927  -0.62009978
H    3.98658848   0.76759970  -1.55741942
H    5.64164829  -0.49012983   0.97405958
H    2.78727889  -1.70772946  -1.54139948
H    2.26835918  -2.29476905   0.06487998

