%chk=mol_6374.chk
# wB97XD/Def2SVP opt freq pop=full gfinput

C 4 H 2 N 2 O 1

1 2
O    0.86782968   0.13067995   0.00000000
N    2.26328897   0.00995000  -0.00000000
C    2.78111887   1.18648958   0.00000000
C    4.21197844   1.14391959   0.00000000
C    5.41178799   1.09819961  -0.00000000
C    6.94275761   1.03127968  -0.00000000
N    8.10211754   0.98920965  -0.00000000
H    0.57612979  -0.80124974  -0.00000000
H    2.23762918   2.14383912   0.00000000

