%chk=mol_1745.chk
# wB97XD/Def2SVP opt pop=full gfinput

C 6 H 9 N 1

1 2
C    1.916768  -0.255907   0.384276
N    4.657117  -0.245324   0.129465
C    5.595781   2.308584  -0.321953
C    8.414100   2.241593  -0.532355
C    9.705898   3.052626  -2.555382
C   12.387023   2.955985  -2.636886
C   14.651311   2.879149  -2.716141
H    1.263565  -2.189815   0.716603
H    0.991520   0.441138  -1.330273
H    1.310015   0.891384   1.995400
H    5.156042  -1.361302  -1.360168
H    5.094720   3.544446   1.263735
H    4.745915   3.101815  -2.037711
H    9.424631   1.500065   1.098725
H    8.730856   3.805436  -4.196137
H   16.662264   2.808757  -2.782338

