%chk=mol_2670.chk
# wB97XD/Def2SVP opt pop=full gfinput

C 5 H 10 O 2

1 2
C    5.762909  -2.255426  -0.872373
C    4.495715   0.059262   0.265620
C    6.248946   2.286682   0.362298
O    8.421546   1.972666   1.973271
C    6.654179   3.894385  -1.945341
C    5.200923   4.939215   0.261935
O    6.516551   6.776482   1.772695
H    4.438513  -3.842210  -0.931994
H    7.406309  -2.830318   0.242754
H    6.405888  -1.875402  -2.800688
H    3.850978  -0.381895   2.185090
H    2.803182   0.511984  -0.843819
H    7.899490   1.595571   3.697457
H    5.605533   3.447994  -3.646737
H    8.538047   4.612141  -2.300118
H    3.179918   5.186958   0.025946
H    8.219553   6.171751   2.144253

