%chk=mol_0698.chk
# wB97XD/Def2SVP opt pop=full gfinput

C 5 H 10 O 1

1 2
C    1.876082  -0.020825  -0.067066
C    4.768743  -0.045127   0.045316
C    5.655232  -1.375437   2.458477
C    5.843373  -1.392369  -2.280597
C    5.681273   2.685811  -0.010564
O    6.945802   3.687347   1.653945
H    1.195554   0.928706  -1.778043
H    1.075575   0.993089   1.552486
H    1.107852  -1.943432  -0.059942
H    4.932355  -0.422958   4.149687
H    7.721931  -1.385547   2.593857
H    5.006924  -3.340847   2.512202
H    5.238019  -0.469446  -4.033696
H    5.225962  -3.366944  -2.356923
H    7.914627  -1.370694  -2.263608
H    5.125051   3.780643  -1.699620

