%chk=mol_2789.chk
# wB97XD/Def2SVP opt freq pop=full gfinput

C 6 H 10 O 1

1 2
C    0.97208965  -0.11999995  -0.14472994
C    2.47481918  -0.01085000  -0.03098999
C    3.14489889  -1.36525953  -0.01199000
C    3.13198876   1.17172956   0.04214999
C    2.49490905   2.53331900   0.11800995
C    4.62935829   1.22513962   0.04173998
O    5.25632811   2.27183914   0.16539994
H    0.48164982   0.81709975  -0.41540983
H    0.54755980  -0.47126982   0.80124974
H    0.70768970  -0.83888966  -0.92862964
H    2.48272920  -2.11682916   0.43345985
H    4.05506849  -1.37833941   0.59377980
H    3.38261867  -1.68462932  -1.03145957
H    1.42616951   2.50135899   0.34069988
H    2.63055897   3.06760883  -0.82811964
H    2.94887877   3.12767887   0.91911966
H    5.15912819   0.27264988  -0.10080996

