%chk=mol_6251.chk
# wB97XD/Def2SVP opt pop=full gfinput

C 5 H 9 N 1 O 1

1 2
O    4.757726  -2.253328  -1.297240
C    3.226424  -0.653241   0.243113
C    4.215903   2.065565   0.110095
N    6.755128   2.206255   1.216889
C    7.887414   4.683441   0.804683
C   10.429134   4.740662   1.916428
C   12.509477   4.787508   2.824555
H    4.192225  -3.975115  -0.991067
H    3.259551  -1.364118   2.186753
H    1.285259  -0.739450  -0.465666
H    2.927602   3.317698   1.137955
H    4.279323   2.653478  -1.876441
H    7.845047   0.862717   0.353265
H    6.724401   6.154139   1.688111
H    8.013742   5.103489  -1.219213
H   14.349011   4.818084   3.641087

