%chk=mol_4716.chk
# wB97XD/Def2SVP opt freq pop=full gfinput

C 6 H 7 N 1

1 2
C    2.67351913   0.41471982   0.88074964
C    2.32186913   0.08202997  -0.59722978
C    2.66678882   1.48818946  -0.79640967
C    2.49640894   2.67428899  -1.40708947
C    2.99487877   3.60228872  -0.42522985
C    3.37760854   2.88816905   0.71358973
N    3.32432890   1.57867932   0.36752984
H    3.35652876  -0.27632987   1.37985945
H    1.84928930   0.65109974   1.56389940
H    1.30875945  -0.19888993  -0.88126963
H    3.02262878  -0.62503976  -1.06069958
H    1.96780920   2.90350890  -2.32202911
H    2.96024895   4.68221807  -0.49690980
H    3.70298862   3.21182871   1.69290936

