%chk=mol_6028.chk
# wB97XD/Def2SVP opt freq pop=full gfinput

C 5 H 7 N 1 O 1

1 2
O    0.88370967   0.06754998   0.00329000
C    2.32804918   0.00952000  -0.00014000
C    3.06875896   1.00578964   0.91720963
N    4.03468847  -0.06526998   1.26257956
C    3.00579882  -1.06971967   0.89147967
C    3.60149860  -2.18744922   0.19375992
C    4.09461832  -3.11895871  -0.38225985
H    0.60542977  -0.73031974  -0.47902983
H    2.70294905   0.03842998  -1.03274953
H    2.48333907   1.35938954   1.77405930
H    3.51115870   1.87079918   0.41458985
H    4.85208845  -0.08380996   0.65202981
H    2.38761926  -1.37717950   1.74513936
H    4.53541803  -3.94955850  -0.88532966

