%chk=mol_0250.chk
# wB97XD/Def2SVP opt pop=full gfinput

C 4 H 8 N 2

1 2
C    1.257934   2.338366  -0.373731
N   -1.483171   2.607633   0.043275
C   -2.637717   0.112779  -0.411658
C   -0.634305  -1.711430   0.397617
N    1.423814  -2.459667  -1.289209
C    1.799681  -0.320573   0.421485
H    1.732142   2.631274  -2.366807
H    2.291576   3.709589   0.774296
H   -2.205310   3.892250  -1.192247
H   -4.361205  -0.090310   0.709422
H   -3.101872  -0.129824  -2.414503
H   -1.127694  -2.916641   1.969076
H    2.315444  -4.032090  -0.613027
H    3.065060  -0.521678   2.010347

