%chk=mol_4159.chk
# wB97XD/Def2SVP opt freq pop=full gfinput

C 4 H 6 N 2 O 1

1 2
C    1.13618958   0.08288997   0.00565000
C    2.60273886   0.18089992   0.00032000
C    3.51320863   1.20477962  -0.00013000
C    3.31669879   2.66432905   0.00503000
N    4.76755857   0.65941978  -0.00619000
N    4.66629839  -0.66588980  -0.00959000
O    3.30748868  -0.98255962  -0.00548000
H    0.80422968  -0.95987964  -0.00360000
H    0.71619970   0.57950979  -0.87442970
H    0.72399968   0.56146979   0.89928967
H    2.25439906   2.92683911  -0.00191000
H    3.78348851   3.11432886  -0.87651968
H    3.77008867   3.10603881   0.89767969

