%chk=mol_4700.chk
# wB97XD/Def2SVP opt pop=full gfinput

C 4 H 10 N 2 O 1

1 2
C    1.864177  -0.246760  -0.299484
C    4.711390   0.058260  -0.006879
N    6.092402  -1.457791  -1.879918
C    5.477295   2.845285  -0.207038
C    5.254100   4.173819  -2.731561
N    6.255844   3.973055   1.839913
O    6.874956   6.504097   1.379084
H    0.859920   0.916971   1.088010
H    1.296919  -2.217083  -0.008636
H    1.209822   0.333064  -2.176416
H    5.259864  -0.610948   1.876498
H    5.374948  -1.156380  -3.641105
H    5.791973  -3.325786  -1.512253
H    4.352039   2.969686  -4.143584
H    7.141256   4.683290  -3.402962
H    4.111307   5.883095  -2.523786
H    7.503706   7.058959   3.020916

