%chk=mol_0568.chk
# wB97XD/Def2SVP opt pop=full gfinput

C 4 H 10 N 2

1 2
N    2.587621  -0.976440  -1.119663
C    5.205969  -0.584303  -0.252278
C    5.949916   2.262494  -0.255415
N    3.977911   3.751787   1.021189
C    8.465917   2.926298   0.887434
C   10.187929   1.359828   1.883981
H    2.232957  -2.869379  -1.187239
H    2.432758  -0.341058  -2.934140
H    6.493685  -1.652660  -1.472418
H    5.353122  -1.363022   1.662203
H    5.992265   2.892094  -2.231710
H    3.981842   3.250537   2.882796
H    2.294770   3.029911   0.382254
H    8.910588   4.937798   0.859183
H    9.920533  -0.668604   1.986272
H   11.945186   2.104229   2.642688

