%chk=mol_5270.chk
# wB97XD/Def2SVP opt pop=full gfinput

C 6 H 11 N 1

1 2
C    1.954204  -0.059678   0.084357
C    4.814209   0.112722  -0.188066
C    6.142290   2.065093  -1.934872
C    5.402084   0.202295  -4.053897
N    5.970458  -1.792046  -2.044533
C    8.736393  -1.428161  -1.635331
C    8.919470   1.454069  -1.544171
H    1.275886   1.466881   1.305631
H    1.423266  -1.850288   0.974267
H    0.926514   0.086172  -1.699620
H    5.616530   0.005253   1.728533
H    5.486083   4.012002  -1.998574
H    6.620051   0.151367  -5.731048
H    3.447031   0.253374  -4.730306
H    9.354825  -2.306675   0.134038
H    9.838160  -2.232636  -3.191955
H   10.102532   2.211282  -3.062793
H    9.617364   2.138263   0.279320

