%chk=mol_1761.chk
# wB97XD/Def2SVP opt freq pop=full gfinput

C 5 H 14 N 2

1 2
C    1.04106963  -0.09589996  -0.02216999
N    2.49586916  -0.01951999  -0.00009000
C    2.94913888   1.37219954  -0.00985000
C    4.47855854   1.41464937  -0.00024000
C    4.99186850   2.85600877  -0.00189000
C    6.51805782   2.89620900   0.00720000
N    6.98628759   4.27780819   0.00984000
H    0.73177969  -1.14497960   0.00160000
H    0.62992978   0.35630989  -0.93013966
H    0.60523975   0.39601985   0.85289967
H    2.87083888  -0.50716978  -0.81343973
H    2.56501889   1.89658928   0.87308967
H    2.57346892   1.88735926  -0.90231967
H    4.87099791   0.88685966  -0.87878966
H    4.85816813   0.89222968   0.88707972
H    4.60111809   3.38443875   0.87706965
H    4.61011839   3.37835884  -0.88851970
H    6.91759729   2.38002920  -0.87247968
H    6.90382719   2.38752913   0.89684963
H    6.67099762   4.75019789  -0.83683968
H    8.00546741   4.28867865  -0.02015999

