%chk=mol_5395.chk
# wB97XD/Def2SVP opt pop=full gfinput

C 4 H 11 N 1 O 2

1 2
C    2.269561   3.299254  -3.092178
O    4.909527   3.479704  -2.623601
C    5.555455   2.508801  -0.183984
C    8.414119   2.792713   0.256927
N    9.915978   1.503750  -1.735014
C    9.207370   5.590830   0.325638
O   11.877987   5.744011   0.685404
H    1.884492   4.087175  -4.963120
H    1.208083   4.384750  -1.687582
H    1.665680   1.321637  -3.070030
H    5.025462   0.507845  -0.089479
H    4.509680   3.541800   1.275565
H    8.921208   1.917146   2.065244
H    9.262095   2.175188  -3.433236
H    9.431170  -0.363621  -1.752419
H    8.286827   6.584599   1.887610
H    8.745180   6.570049  -1.438063
H   12.547328   4.355271  -0.342248

