%chk=mol_3055.chk
# wB97XD/Def2SVP opt freq pop=full gfinput

C 6 H 10 O 1

1 2
C    0.35646987  -2.03407931   0.08521997
C    1.79448938  -2.15366936  -0.32954985
C    2.44922924  -3.32428885  -0.24728991
O    2.31696916  -0.96124965  -0.77665973
C    3.67790866  -0.93380970  -1.20381963
C    3.99257851   0.47348982  -1.61364937
C    4.48072863   0.83177966  -2.80881882
H   -0.24781992  -1.67354941  -0.75350970
H    0.26030990  -1.32247949   0.91170967
H   -0.06327998  -2.99046898   0.41391984
H    1.94876921  -4.21498823   0.12162995
H    3.48526883  -3.44883871  -0.53623980
H    3.82403874  -1.62520933  -2.04204917
H    4.33754826  -1.21103954  -0.37346986
H    3.79785848   1.24176955  -0.86901963
H    4.68441820   0.10134996  -3.58555865
H    4.67929792   1.87477922  -3.03589892

