%chk=mol_4906.chk
# wB97XD/Def2SVP opt freq pop=full gfinput

C 4 H 10 N 2 O 1

1 2
C    1.09104955  -0.82956970   0.19941992
C    2.47863913  -0.31230989   0.54307979
O    3.42909884  -1.31757951   0.18216994
C    2.79323888   1.00246966  -0.19563994
N    4.11946869   1.53140938   0.17272994
N    5.19297791   0.80012971  -0.21406993
C    6.32271719   1.36645949   0.05627998
H    0.31739989  -0.11081996   0.48448980
H    0.89741969  -1.77513933   0.71696973
H    1.00339961  -1.03449965  -0.87295967
H    2.55263901  -0.16183995   1.62646937
H    4.25579834  -0.81802970  -0.00983000
H    2.03866935   1.75837934   0.04751998
H    2.76821899   0.84709972  -1.28071952
H    4.13144875   1.72683930   1.17815948
H    7.26275730   0.85941964  -0.21222992
H    6.41229773   2.35271907   0.54591984

