%chk=mol_6783.chk
# wB97XD/Def2SVP opt pop=full gfinput

C 5 H 12 N 2

1 2
C    1.773867   0.032995   0.289808
C    4.633533  -0.156035  -0.074493
C    5.346130  -0.006595  -2.873877
N    5.994740   1.848681   1.383450
C    7.849242  -0.066537   2.256975
C    5.894963  -2.153154   1.701245
N    7.059110  -4.241661   0.307175
H    1.248278   0.077800   2.292691
H    0.825735  -1.596233  -0.565765
H    1.015898   1.745200  -0.595131
H    7.395254   0.012737  -3.167540
H    4.584891   1.714416  -3.742395
H    4.574762  -1.622708  -3.912867
H    4.962610   2.592213   2.833304
H    9.578719  -0.086493   1.114031
H    8.397055   0.122265   4.244760
H    4.776604  -2.727366   3.346062
H    8.291797  -3.699763  -1.070964
H    5.782921  -5.401952  -0.548455

