%chk=mol_0822.chk
# wB97XD/Def2SVP opt pop=full gfinput

C 5 H 10 O 1

1 2
C    6.205729  -2.219842   0.619018
O    7.855025  -0.102196   0.669209
C    6.690462   2.082195  -0.389189
C    8.585234   4.177334  -0.313014
C    9.334983   5.514996  -2.334190
C   11.240431   7.595055  -2.226475
H    7.182452  -3.825902   1.475290
H    5.715741  -2.708885  -1.329309
H    4.492049  -1.831145   1.708501
H    5.041033   2.607879   0.746990
H    6.077662   1.684464  -2.327273
H    9.379939   4.586875   1.536895
H    8.554110   5.092396  -4.187784
H   11.919656   7.936737  -0.303074
H   10.407081   9.349552  -2.936086
H   12.867334   7.121924  -3.411995

