%chk=mol_6231.chk
# wB97XD/Def2SVP opt freq pop=full gfinput

C 4 H 10 N 2 O 1

1 2
O    2.63387918  -0.68859971   0.86118966
C    2.25618911   0.16672993  -0.20754993
C    2.86210895   1.54727936  -0.00112000
C    4.38827848   1.49938941   0.01093000
N    4.93658829   2.83142900   0.18041992
C    5.05043793   3.73790860  -0.81807971
N    5.40852785   4.96068811  -0.66906977
H    2.16702914  -1.53323948   0.73206973
H    1.16395962   0.23553991  -0.22745992
H    2.59739900  -0.27583990  -1.14885962
H    2.51172900   1.96268928   0.95202965
H    2.51065898   2.21648908  -0.79526973
H    4.76695824   1.05464959  -0.91677964
H    4.74465847   0.87262970   0.83575970
H    5.03996801   3.14909887   1.13621950
H    4.80670834   3.34768867  -1.82105935
H    5.60681772   5.14005804   0.31698990

