%chk=mol_5836.chk
# wB97XD/Def2SVP opt freq pop=full gfinput

C 4 H 8 N 2 O 1

1 2
N    1.06307960   3.03092885   2.03610921
C    2.13006926   2.52002907   1.52594948
N    3.28310871   3.21320868   1.33788955
O    3.93130851   2.83366895   0.16473994
C    5.18889809   3.53748870   0.12871996
C    5.75230789   3.77283859  -1.24578965
C    5.16030788   4.91598845  -0.47477981
H    0.33146989   2.31267905   2.07654929
H    2.17777920   1.46383953   1.20733964
H    3.12790895   4.21515846   1.41690946
H    5.90467787   3.33741879   0.91973960
H    5.19860792   3.38949871  -2.09506917
H    6.82880783   3.74164867  -1.36386955
H    5.83460760   5.65987778  -0.06625997
H    4.20813847   5.31097794  -0.80959970

