%chk=mol_1673.chk
# wB97XD/Def2SVP opt pop=full gfinput

C 5 H 12 N 2

1 2
C    4.903858  -1.719991  -0.760558
N    4.211557   0.618243   0.514554
C    6.256600   2.494250   0.457862
C    6.498617   4.243531  -1.764759
C    5.684372   5.301967   0.749881
C    2.977245   6.169842   0.986361
N    7.515498   6.865507   2.163056
H    3.311462  -3.038472  -0.704943
H    6.521502  -2.627381   0.156904
H    5.365027  -1.378196  -2.748569
H    3.714389   0.227977   2.334908
H    8.017768   1.837022   1.294179
H    5.105265   4.106224  -3.261894
H    8.379424   4.673463  -2.450502
H    1.695783   5.118607  -0.252260
H    2.818848   8.171913   0.483279
H    2.317844   5.938011   2.934669
H    9.320923   6.256657   1.886136
H    7.185684   6.720357   4.055655

