%chk=mol_5496.chk
# wB97XD/Def2SVP opt freq pop=full gfinput

C 4 H 9 N 1 O 2

1 2
N    1.04497957   0.08842997  -0.27387992
C    2.50080895   0.00250000  -0.07908997
C    3.32115889  -0.74000973  -1.09837961
C    3.39397860   0.76053971  -1.03380966
O    2.70754910   1.46059942  -2.09496927
C    4.63911819   1.44226944  -0.55347979
O    5.46933794   1.73694932  -1.67213929
H    0.64808977   0.80035967   0.34193987
H    0.60207981  -0.78912967   0.00394000
H    2.82491899  -0.07984997   0.95578963
H    2.82252908  -1.18497956  -1.95142925
H    4.17570829  -1.30874956  -0.75023967
H    1.75902939   1.22109950  -2.04965925
H    5.20890808   0.82396972   0.14694995
H    4.38728809   2.38440895  -0.05671998
H    4.84833813   1.99891925  -2.38021898

