%chk=mol_3063.chk
# wB97XD/Def2SVP opt freq pop=full gfinput

C 6 H 12 O 1

1 2
C    0.99897963  -0.49373981   0.02429999
C    2.49739885  -0.33064988  -0.21019992
C    2.91232896  -1.07089961  -1.47934937
O    2.81265879   1.04991961  -0.41469982
C    3.04294896   1.88351929   0.65346980
C    3.34514880   3.29217887   0.22598991
C    3.01435876   1.54591942   1.95291936
H    0.67854971   0.03986998   0.92484963
H    0.72817969  -1.54848945   0.13641995
H    0.42462984  -0.07185998  -0.80866969
H    3.07536864  -0.75577968   0.61749977
H    2.39197898  -0.67205977  -2.35767913
H    2.70186901  -2.14236903  -1.40256941
H    3.98450851  -0.93904966  -1.66293931
H    4.24305820   3.31127882  -0.39988986
H    3.51424885   3.95911860   1.07763958
H    2.50970888   3.69573855  -0.35500985
H    2.79487872   0.54745978   2.30631900
H    3.21308899   2.28644919   2.72262907

