%chk=mol_4368.chk
# wB97XD/Def2SVP opt pop=full gfinput

C 5 H 7 N 1 O 1

1 2
C    1.889726   0.000000   0.000000
C    4.618491   0.000000   0.000000
C    6.867567   0.000000   0.000000
C    9.596332   0.000000   0.000000
N   10.542177   2.551451   0.075400
C   13.081326   3.023675   0.123777
O   14.744493   1.421112   0.120319
H    1.145193   1.929184   0.022034
H    1.145023  -0.983584   1.659690
H    1.145023  -0.945449  -1.681705
H   10.348386  -0.914042  -1.698184
H   10.349463  -1.017051   1.638090
H    9.305446   4.007126   0.059111
H   13.493533   5.066393   0.167260

