%chk=mol_4238.chk
# wB97XD/Def2SVP opt freq pop=full gfinput

C 6 H 11 N 1

1 2
C   -1.22370958  -0.00117000   0.96731967
C   -0.61715972  -1.02514958  -0.02001999
C    0.87923968  -1.27003956   0.20631991
C    1.68148935  -0.00070000  -0.09698996
C    0.88008970   1.26829958   0.20986992
C   -0.61653978   1.02497959  -0.01703000
N   -0.85307968   0.00126000  -1.09475958
H   -0.83762974  -0.00266000   1.99000919
H   -2.32024908  -0.00101000   1.00378954
H   -1.19184947  -1.94990921  -0.13107994
H    1.04802966  -1.58333945   1.24333954
H    1.23418951  -2.08556914  -0.43418983
H    1.92670929   0.00077000  -1.16805959
H    2.64056897  -0.00168000   0.43223983
H    1.23553956   2.08550906  -0.42826983
H    1.04885960   1.57849944   1.24775958
H   -1.19064951   1.95043933  -0.12583995
H   -1.81381929   0.00222000  -1.44029939

