%chk=mol_2728.chk
# wB97XD/Def2SVP opt freq pop=full gfinput

C 6 H 10 O 1

1 2
C    2.89389896  -0.42845985  -1.73142934
C    2.82040906  -0.66585976  -0.24999991
C    2.21001911  -1.74957931   0.25929990
C    3.44419861   0.38815984   0.63972980
C    4.92535830   0.55079979   0.46681982
C    5.51121807   1.75064933  -0.23316991
O    5.48023796   1.65404928   1.19716954
H    2.44470906   0.53722978  -1.98531926
H    2.36177921  -1.20057952  -2.29734921
H    3.93500853  -0.42946982  -2.07020926
H    1.75344932  -2.49923897  -0.37991986
H    2.14658904  -1.91649938   1.33050954
H    3.25755882   0.14546995   1.69402933
H    2.93126893   1.34163952   0.45784983
H    5.47320795  -0.38107985   0.48666981
H    4.84694815   2.46761918  -0.69727969
H    6.47178745   1.64299941  -0.71877974

