%chk=mol_4190.chk
# wB97XD/Def2SVP opt freq pop=full gfinput

C 5 H 7 N 1 O 1

1 2
C    1.08825958   0.08486997   0.15749994
C    2.34778929  -0.12942995  -0.23927991
O    2.72243905  -1.40736938  -0.65766978
C    4.06399870  -1.27495944  -1.18901956
C    4.54799843   0.11837996  -0.93044966
N    3.94856834   1.27044952  -1.59836936
C    3.41905880   0.85984969  -0.30355990
H    0.75757968   1.06741965   0.47062981
H    0.36586985  -0.72312975   0.15535995
H    4.69860840  -2.01151919  -0.68599975
H    4.03874874  -1.50111938  -2.26024914
H    5.54920816   0.20352992  -0.53848982
H    4.52910852   2.10263920  -1.49436939
H    3.61321855   1.47743940   0.56327975

