%chk=mol_1590.chk
# wB97XD/Def2SVP opt pop=full gfinput

C 5 H 10 N 2

1 2
C    1.774774   0.365662  -0.875567
C    4.505334   0.097094  -0.127103
N    5.688435  -2.002789   0.346614
N    4.284916  -4.132850   0.185930
C    6.014771   2.457457   0.047375
C    5.266667   4.519639   1.875421
C    7.598589   2.988092   2.363896
H    1.329555   2.327859  -1.344616
H    0.568222  -0.233910   0.691715
H    1.380162  -0.806970  -2.530986
H    5.460666  -5.666004   0.258666
H    3.151855  -4.312941   1.741893
H    6.810989   3.049262  -1.748696
H    3.658812   4.215336   3.107844
H    5.504111   6.462675   1.272050
H    9.422609   3.875677   2.082875
H    7.561701   1.627187   3.895973

