%chk=mol_4618.chk
# wB97XD/Def2SVP opt pop=full gfinput

C 4 H 9 N 1 O 2

1 2
C    0.477175   0.754530   1.134799
C    2.843017  -0.674141   0.364755
C    5.096667   1.089635   0.030349
O    7.275559  -0.334859  -0.733686
C    8.695688  -1.278078   1.167435
N   10.666710  -2.585089   0.207001
O    8.311186  -1.039349   3.427491
H   -1.111442  -0.552405   1.348830
H   -0.036755   2.162225  -0.290697
H    0.755342   1.727077   2.938940
H    2.501355  -1.700470  -1.403367
H    3.276634  -2.118704   1.785130
H    5.479223   2.184845   1.747411
H    4.712013   2.452732  -1.479297
H   10.860974  -2.759170  -1.679683
H   11.883996  -3.434672   1.402309

