%chk=mol_7153.chk
# wB97XD/Def2SVP opt freq pop=full gfinput

C 6 H 7 N 1

1 2
C    0.99999964   0.00000000   0.00000000
C    2.44399905   0.00000000   0.00000000
C    3.63415861   0.00000000   0.00000000
C    5.07815790   0.00000000   0.00000000
C    5.63371801   1.42123938   0.00105000
C    7.09959745   1.40384948   0.00104000
N    8.26158714   1.38564944   0.00103000
H    0.60600978   1.02088964   0.01167000
H    0.60591978  -0.52050984   0.87825966
H    0.60592973  -0.50028980  -0.88992965
H    5.44964790  -0.54334980  -0.87800968
H    5.44964790  -0.54464978   0.87719965
H    5.27318811   1.96757925   0.88140970
H    5.27318811   1.96887922  -0.87849969

