%chk=mol_4335.chk
# wB97XD/Def2SVP opt freq pop=full gfinput

C 5 H 9 N 1 O 1

1 2
C    1.88396931  -0.50736982  -1.28211951
C    2.66914892  -0.13408995  -0.03430999
C    3.06042910   1.31541955  -0.04539999
C    4.33335829   1.73513937  -0.02351999
C    4.63786840   3.17929864  -0.02892999
N    5.85635757   3.61297870  -0.00270000
O    5.83989763   5.01285839  -0.01499999
H    1.60341942  -1.56501937  -1.24958956
H    2.47751904  -0.34195986  -2.18755913
H    0.96496964   0.08291997  -1.36398947
H    3.55233860  -0.77908975   0.04208999
H    2.05519938  -0.32589990   0.85298967
H    2.24427915   2.03493929  -0.06150997
H    5.17913818   1.05783963  -0.00091000
H    3.77546859   3.86901855  -0.05617998
H    6.79025745   5.23167801   0.00836000

