%chk=mol_6902.chk
# wB97XD/Def2SVP opt pop=full gfinput

C 6 H 13 N 1

1 2
C    4.466746  -0.890987  -2.850841
C    4.627372   0.027193  -0.134152
C    6.159959   2.457627   0.024283
C    4.897660   4.904803  -1.007243
C    6.167102   6.329354   1.205154
C    6.145730   3.792340   2.642971
N    8.572610   3.420518   3.893951
H    3.397161  -2.658637  -2.951280
H    6.352674  -1.231043  -3.632828
H    3.523735   0.501836  -4.056354
H    5.523839  -1.437080   1.023211
H    2.716254   0.310936   0.610136
H    8.064936   2.192838  -0.771821
H    2.827635   4.910793  -0.915062
H    5.486688   5.488691  -2.899086
H    8.032451   7.088306   0.711576
H    5.036989   7.842307   2.043417
H    4.475117   3.473033   3.820818
H   10.115515   3.787106   2.799157
H    8.821676   1.634802   4.574574

