%chk=mol_5475.chk
# wB97XD/Def2SVP opt pop=full gfinput

C 5 H 9 N 1 O 1

1 2
N    2.052375  -0.279453  -0.092748
C    4.726772   0.242584   0.004649
C    6.293941  -1.157230  -2.048274
C    8.353893  -0.513004   0.020277
C    6.214799  -1.457489   1.883036
O    8.473910   2.233940   0.239466
C    5.826460   2.897460   0.215523
H    1.072646   0.377378   1.430390
H    1.604604  -2.147220  -0.242509
H    6.507480  -0.191864  -3.863167
H    5.908210  -3.164290  -2.377635
H   10.177479  -1.466446  -0.014891
H    5.821849  -3.489984   1.888025
H    6.350689  -0.778170   3.829776
H    5.419508   4.087081  -1.423493
H    5.331806   3.849580   1.980471

