%chk=mol_0571.chk
# wB97XD/Def2SVP opt freq pop=full gfinput

C 6 H 10

1 2
C    1.25563943  -0.81350970   0.16704993
C    2.21244907   0.00538000  -0.28873989
C    3.17845869   0.74494970   0.59261978
C    4.61590862   0.39646986   0.33044988
C    5.48618793   1.29178941  -0.51524979
C    5.71175766   1.21065950   0.96905965
H    0.58554977  -1.32243955  -0.51893979
H    1.11865950  -0.99652964   1.22871947
H    2.31164908   0.15985994  -1.36084950
H    2.96295905   0.53760982   1.64804935
H    3.01460886   1.82037926   0.44957983
H    4.77488804  -0.67572975   0.27636987
H    5.06529808   2.20859933  -0.91233963
H    6.21559763   0.82289970  -1.16557956
H    6.59130716   0.68342978   1.32184958
H    5.43713808   2.06696916   1.57433939

