%chk=mol_5487.chk
# wB97XD/Def2SVP opt pop=full gfinput

C 5 H 11 N 1 O 1

1 2
N    1.270898  -0.751034  -0.045769
C    3.947411  -1.232725  -0.474888
C    4.985400  -0.982677  -3.104234
C    5.620972   0.971943  -1.134459
C    8.266078   1.149879  -0.115273
C    8.336829   2.335135   2.512032
O    7.395556   0.616882   4.357916
H    0.909582  -0.307799   1.793312
H    0.223328  -2.323910  -0.429913
H    4.755231  -2.738213   0.672856
H    3.707208  -0.440382  -4.608910
H    6.436691  -2.307488  -3.685344
H    4.760693   2.818753  -1.359393
H    9.374402   2.325667  -1.415065
H    9.146785  -0.727280  -0.061057
H    7.227579   4.076309   2.606046
H   10.288236   2.780203   3.027889
H    5.611164   0.377000   3.993124

