%chk=mol_4585.chk
# wB97XD/Def2SVP opt pop=full gfinput

C 4 H 8 N 2 O 1

1 2
C    2.046876  -0.199196  -0.349089
C    4.866574   0.380137  -0.488286
C    6.180727  -1.710731  -1.927445
O    7.680111  -1.379689  -3.671549
C    5.240116   3.030818  -1.531340
N    5.753914   3.421236  -4.019845
N    5.018886   4.999629  -0.092332
H    1.059966   1.188997   0.826075
H    1.708728  -2.074352   0.458618
H    1.181173  -0.159550  -2.229499
H    5.652511   0.337600   1.429710
H    5.795091  -3.643846  -1.243119
H    6.824519   2.047726  -4.857314
H    6.424219   5.187317  -4.349847
H    4.586365   4.494279   1.725660

