%chk=mol_2116.chk
# wB97XD/Def2SVP opt pop=full gfinput

C 5 H 8 N 2

1 2
N    5.010798   3.805663   4.308103
C    4.202581   3.850506   2.018908
N    5.545949   3.178671  -0.065196
C    8.265662   2.752934   0.015968
C    9.755201   5.232463   0.064005
C    9.463428   6.676251  -2.304086
C    9.230972   7.865683  -4.223406
H    3.598076   4.390798   5.499330
H    2.259810   4.460340   1.570570
H    4.900457   3.829530  -1.749735
H    8.797091   1.636465  -1.646896
H    8.755045   1.610746   1.674052
H   11.761976   4.798034   0.337241
H    9.166513   6.404017   1.666228
H    9.034270   8.935608  -5.919284

