%chk=mol_6955.chk
# wB97XD/Def2SVP opt freq pop=full gfinput

C 5 H 10 N 2

1 2
C    3.14321876  -1.13801956  -0.52930981
C    2.46638894   0.07046997   0.09975996
C    3.34295869   1.31616950   0.05512998
C    3.60708880   1.86546922  -1.36436951
N    3.48969865   3.35301876  -1.26777947
C    2.94019890   3.53417873  -0.10731997
N    2.66530895   2.44765925   0.66139972
H    2.49999905  -2.01900935  -0.43989983
H    4.09169865  -1.35894942  -0.03005999
H    3.34329867  -0.97481960  -1.59233940
H    2.22066927  -0.16343994   1.14346957
H    1.51046944   0.25560990  -0.40669987
H    4.29427814   1.14498961   0.57283980
H    2.87400889   1.50499940  -2.09531927
H    4.60863829   1.59012938  -1.71067941
H    2.70112896   4.51755810   0.32776988
H    2.73411894   2.55522895   1.66608930

