%chk=mol_6309.chk
# wB97XD/Def2SVP opt pop=full gfinput

C 4 H 7 N 1 O 2

1 2
O    7.960037   0.690468   3.854871
C    7.805476   2.834381   2.998410
N    8.986763   3.603122   0.839983
O    7.971640   5.821282  -0.225255
C    9.992872   7.644037  -0.329039
C   11.349260   7.855932  -2.817752
C    9.524069   9.877504  -2.020552
H    6.730883   4.350584   3.939342
H    9.511805   2.228743  -0.384276
H   11.059074   8.010134   1.386568
H   10.786047   6.607238  -4.338131
H   13.348421   8.294556  -2.779674
H   10.284267  11.687578  -1.443278
H    7.724010   9.988639  -2.991418

