%chk=mol_5217.chk
# wB97XD/Def2SVP opt pop=full gfinput

C 4 H 8 N 2 O 1

1 2
C    1.606607  -0.088931   0.158888
N    4.173498  -0.596851  -0.680887
C    4.933792  -3.120769  -0.718568
O    3.540156  -4.968638  -0.591503
N    6.039867   1.252397  -0.187725
C    7.663293   1.536763  -2.421986
C    5.640965   3.424637  -1.867579
H    1.058662   1.859585  -0.252940
H    1.488594  -0.431916   2.196032
H    0.294552  -1.367349  -0.801414
H    6.995747  -3.336009  -0.932504
H    7.400905   0.299314  -4.032317
H    9.603494   2.063241  -2.036199
H    6.197792   5.238699  -1.101295
H    4.016480   3.468668  -3.112284

