%chk=mol_5666.chk
# wB97XD/Def2SVP opt freq pop=full gfinput

C 4 H 2 N 2 O 1

1 2
N    0.99035966  -0.08769997   0.00516000
C    2.14978909  -0.00542000   0.00139000
C    3.57262874   0.08151997  -0.00322000
N    4.32375813   1.16671956  -0.00751000
C    5.60473824   0.67231977  -0.01063000
C    5.57680798  -0.70005971  -0.00808000
O    4.27209854  -1.09580958  -0.00329000
H    6.46792746   1.32425940  -0.01448999
H    6.32105780  -1.48323953  -0.00900000

