%chk=mol_0795.chk
# wB97XD/Def2SVP opt freq pop=full gfinput

C 4 H 6 O 2

1 2
C    0.69616973  -0.12785995   0.15661995
C    2.17402911  -0.26993987  -0.09587996
O    2.68197894  -1.37039948  -0.30576989
C    2.97552896   1.00338960  -0.11907995
C    4.44963837   0.77443969  -0.26880991
O    5.28818798   1.47814941   0.28980991
H    0.53261983   0.36554986   1.11778963
H    0.22974992  -1.11656964   0.18512993
H    0.24313991   0.45535985  -0.64906973
H    2.79961896   1.54797935   0.81370974
H    2.64076900   1.60453939  -0.96942967
H    4.75721836   0.01561999  -1.00892961

