%chk=mol_4976.chk
# wB97XD/Def2SVP opt pop=full gfinput

C 5 H 9 N 1 O 1

1 2
C    1.977428   0.016781  -0.051514
N    4.718079  -0.037889   0.163046
C    5.710186   2.038693   1.711808
C    8.424625   1.276623   2.295979
C    8.122931  -1.533645   2.506325
O    9.679971  -2.943702   3.477512
C    5.638565  -2.373288   1.360943
H    1.314777  -1.551465  -1.230835
H    1.360055   1.766478  -0.970601
H    1.036458  -0.113762   1.789684
H    4.642622   2.236453   3.480233
H    5.642873   3.845385   0.705718
H    9.706409   1.708520   0.735085
H    9.093040   2.094761   4.070375
H    5.952221  -3.853945  -0.043615
H    4.410224  -3.029892   2.894229

