%chk=mol_6302.chk
# wB97XD/Def2SVP opt freq pop=full gfinput

C 4 H 6 N 2 O 1

1 2
O    2.50573897  -0.36524984  -0.75192976
C    2.76935911   0.62183976  -1.43103945
N    3.61869860   1.64597940  -1.09546959
C    4.16185856   1.57083941   0.07430997
N    5.04747820   2.45579910   0.67192978
C    6.04146814   3.09641862  -0.20312993
C    4.89319801   3.87986851   0.33420989
H    2.30110931   0.74428976  -2.42257929
H    3.95883846   0.73407972   0.76850975
H    6.02873802   2.77778888  -1.23610950
H    7.00828743   3.19979882   0.26788992
H    5.05599833   4.53068876   1.18125951
H    4.06582832   4.12062836  -0.31882989

