%chk=mol_4987.chk
# wB97XD/Def2SVP opt freq pop=full gfinput

C 4 H 5 N 1 O 2

1 2
C    0.99352962   0.02467999  -0.00770000
N    2.42877889   0.02865999   0.00100000
C    3.23058891   1.11808956   0.00256000
C    4.46915817   0.64715976   0.00810000
O    4.55591822  -0.74647969   0.00938000
C    3.21132898  -1.11074960   0.00398000
O    2.81896901  -2.26781917   0.00178000
H    0.60141975   1.04530966   0.00668000
H    0.63470978  -0.52322984   0.86859965
H    0.64610976  -0.49412981  -0.90598965
H    2.86982894   2.13445926   0.00005000
H    5.41051817   1.16690958   0.01107000

