%chk=mol_5845.chk
# wB97XD/Def2SVP opt freq pop=full gfinput

C 4 H 7 N 1 O 2

1 2
N    1.30554950  -0.05537998   0.90272969
C    1.95400929   0.29745990  -0.25197992
O    1.57616949  -0.16867994  -1.32670951
C    3.14556885   1.29334950  -0.04361999
C    2.97764897   2.72129893  -0.57608980
C    3.39507866   3.15524864   0.82279968
O    3.27822876   1.80306935   1.32732952
H    1.61616933   0.31676990   1.79279935
H    0.53262979  -0.70369971   0.85824966
H    4.09560823   0.83461970  -0.34839985
H    1.95510924   2.99821901  -0.84790969
H    3.66427875   3.00400901  -1.37746954
H    4.42099810   3.52423859   0.91497964
H    2.70536876   3.83825850   1.32572949

