%chk=mol_5799.chk
# wB97XD/Def2SVP opt freq pop=full gfinput

C 4 H 11 N 1 O 2

1 2
N    1.23639953  -0.25789991  -0.48006982
C    2.69251895  -0.17961992  -0.29814988
C    3.11454868   1.29317951  -0.14837995
O    2.32583928   1.89277935   0.88876969
C    4.60085821   1.42486942   0.19445993
C    5.02366829   2.88133883   0.36685985
O    4.43425798   3.45235872   1.52734935
H    0.96478963  -1.24043953  -0.54110980
H    0.98514962   0.15221994  -1.38095951
H    3.20646882  -0.64925975  -1.14313960
H    2.94448876  -0.73490977   0.61219978
H    2.89672875   1.83660936  -1.07566965
H    1.45818949   1.43579948   0.82473969
H    5.20203829   0.96204966  -0.59597975
H    4.80068827   0.89386970   1.13349950
H    4.73871803   3.48279881  -0.50225985
H    6.10977745   2.94551873   0.48220980
H    3.50359869   3.13712883   1.54750943

