%chk=mol_5078.chk
# wB97XD/Def2SVP opt freq pop=full gfinput

C 5 H 11 N 1 O 1

1 2
C    1.11863959  -0.25600991  -0.02624999
N    2.56963921  -0.12609996   0.00282000
C    2.96813893   1.26938951  -0.15285994
C    4.46155834   1.35880947  -0.08391996
C    5.23545790   1.86872923  -1.05634964
C    6.72266769   1.96707928  -0.98494965
O    7.26694727   1.21297956  -2.05523920
H    0.84441972  -1.30714953   0.10518996
H    0.70504975   0.08254997  -0.98194963
H    0.65260977   0.31026989   0.78648973
H    2.96434879  -0.66424972  -0.76795971
H    2.55115914   1.87660933   0.65917981
H    2.59515905   1.67315936  -1.10172963
H    4.91648769   0.98751962   0.83261967
H    4.78090811   2.24787927  -1.96899927
H    7.12729740   1.58362937  -0.04310998
H    7.03814697   3.00822902  -1.09780955
H    6.92681742   0.30729988  -1.95545924

