%chk=mol_1496.chk
# wB97XD/Def2SVP opt pop=full gfinput

C 5 H 12 N 2

1 2
C    2.533405   1.046833   0.881349
C    5.199449   0.815247  -0.166542
N    6.606105   3.144221   0.319912
C    9.141399   2.997408  -0.776281
C   10.430041   5.488105  -0.364982
C   12.168835   5.892298   1.854672
N   13.174661   5.661430  -0.703375
H    1.474516  -0.694229   0.521338
H    1.511441   2.608143  -0.015515
H    2.551111   1.370656   2.925636
H    5.082948   0.454441  -2.202570
H    6.143915  -0.800072   0.721176
H    6.760892   3.408896   2.221619
H    9.018983   2.649868  -2.814312
H   10.216955   1.447606   0.082449
H    9.343524   7.070051  -1.082189
H   12.563712   4.322692   3.105973
H   12.253570   7.748538   2.709792
H   13.652308   7.390511  -1.419883

