%chk=mol_4337.chk
# wB97XD/Def2SVP opt pop=full gfinput

C 5 H 9 N 1 O 1

1 2
C    4.187614  -0.235687   2.715801
C    4.934812   0.657851   0.085869
C    5.610748   3.415661   0.046790
C    4.001741   5.247089  -0.651048
C    8.225260   4.185384   0.732515
N    9.974863   2.597636   1.363362
O   12.203757   3.929988   1.872133
H    3.715825  -2.249814   2.675606
H    2.527754   0.790529   3.406987
H    5.722979   0.032711   4.076366
H    3.358308   0.297273  -1.211900
H    6.514434  -0.481502  -0.620265
H    2.074182   4.801700  -1.197652
H    4.536231   7.227654  -0.692755
H    8.622933   6.235756   0.666639
H   13.382549   2.576793   2.292295

