%chk=mol_5272.chk
# wB97XD/Def2SVP opt pop=full gfinput

C 5 H 11 N 1 O 1

1 2
C    3.871085  -0.920599  -2.591665
O    4.243059   0.108187  -0.140879
C    5.791576   2.351897  -0.021146
C    4.567015   4.861415  -0.922186
C    5.999786   6.191177   1.247276
C    5.964221   3.626252   2.630801
N    8.431467   3.156088   3.783610
H    2.699889  -2.613283  -2.423158
H    5.687755  -1.442900  -3.426924
H    2.902393   0.445994  -3.801449
H    7.636704   2.016791  -0.916536
H    2.505304   4.913269  -0.731796
H    5.083004   5.475160  -2.825821
H    7.864832   6.893060   0.674632
H    4.970868   7.723557   2.176454
H    4.336732   3.320853   3.870575
H    9.939430   3.404720   2.616326
H    8.591810   1.355878   4.464232

