%chk=mol_4905.chk
# wB97XD/Def2SVP opt freq pop=full gfinput

C 6 H 9 N 1

1 2
C    0.86591971  -1.23297954   0.84239966
C    1.15428960  -0.35653988  -0.34098986
N    1.03676963   1.11077964  -0.28177989
C   -0.18591993   1.64612937   0.32478988
C   -1.42374945   0.82213968   0.11357995
C   -1.36394954  -0.48672980  -0.18123992
C   -0.09473997  -1.20535958  -0.32150987
H    1.47270942  -2.12170935   0.96953964
H    0.57100981  -0.77526969   1.77843928
H    1.94953918  -0.69385976  -1.00300968
H    1.84775925   1.52727938   0.17157994
H   -0.03654999   1.77156937   1.40334952
H   -0.35364985   2.64430904  -0.09268996
H   -2.38466930   1.31161952   0.23401992
H   -2.28318906  -1.04974961  -0.31711987
H   -0.11921995  -2.06667924  -0.97943962

