%chk=mol_6831.chk
# wB97XD/Def2SVP opt freq pop=full gfinput

C 7 H 12

1 2
C   -0.92067969   0.00119000  -1.15375960
C   -0.60426980   1.05039954  -0.04132998
C   -1.20365965  -0.00145000   0.93593967
C   -0.60443980  -1.05106962  -0.04389998
C    0.88846964  -1.27667952   0.21849991
C    1.68135941  -0.00049000  -0.08567997
C    0.88932967   1.27488959   0.22161992
H   -1.96571934   0.00175000  -1.48859942
H   -0.27913988   0.00216000  -2.03897929
H   -1.16800964   1.98636925  -0.10049997
H   -0.81748968  -0.00280000   1.95917928
H   -2.29999924  -0.00131000   0.98150963
H   -1.16858959  -1.98664927  -0.10549996
H    1.04067957  -1.57715940   1.26230943
H    1.26462948  -2.09438920  -0.40725985
H    1.92713928   0.00062000  -1.15573955
H    2.64120913  -0.00143000   0.44168982
H    1.26526952   2.09394932  -0.40202984
H    1.04120958   1.57275939   1.26611960

