%chk=mol_5448.chk
# wB97XD/Def2SVP opt freq pop=full gfinput

C 6 H 11 N 1

1 2
C    1.07939959   0.26411989  -0.25233990
C    2.53032899  -0.01480999  -0.06430998
C    3.22972894  -1.01710963  -0.93714964
C    3.53711867   0.45295981  -1.08846962
N    4.83173847   0.95578963  -0.59840977
C    5.83436775   0.90030968  -1.65857947
C    5.21247816   2.20643902  -1.24539948
H    0.83271968   1.25551951   0.14004995
H    0.48104981  -0.47493982   0.28960988
H    0.78553969   0.23224992  -1.30659950
H    2.81379890   0.02591999   0.98165965
H    2.67219901  -1.49809945  -1.73177934
H    3.97864866  -1.65161943  -0.47679982
H    3.12920904   0.92805970  -1.97991931
H    5.55886793   0.46825984  -2.61252904
H    6.84530735   0.69035971  -1.33180940
H    5.80518818   2.88262892  -0.64188981
H    4.51481819   2.68871903  -1.91776931

