%chk=mol_5870.chk
# wB97XD/Def2SVP opt freq pop=full gfinput

C 4 H 5 N 1 O 2

1 2
N    1.02820969   0.05416998   0.03483999
C    2.38380909  -0.03348999  -0.00761000
O    2.98236871  -1.09735966  -0.05376998
C    3.09949899   1.21762955   0.00000000
C    3.69457865   2.24833918   0.00000000
C    4.41657829   3.49887872   0.00000000
O    3.51091886   4.57743835  -0.18985993
H    0.54933977   0.94021964   0.10100996
H    0.49727982  -0.80477971   0.04763998
H    5.16434765   3.53344870  -0.79807967
H    4.93349791   3.65724874   0.95089966
H    3.06794906   4.42192841  -1.04086959

