%chk=mol_3992.chk
# wB97XD/Def2SVP opt freq pop=full gfinput

C 5 H 9 N 1 O 1

1 2
C    0.98850960   0.00077000   0.02327999
C    2.50269914   0.00944000  -0.00764000
C    3.11619878   1.09322965   0.87477970
N    4.47840834   0.63319975   1.19698966
C    4.32849836  -0.81573969   1.45252955
C    3.12283874  -1.20702946   0.62328976
O    2.72789907  -2.35523915   0.46565983
H    0.59440976  -0.80702966  -0.60243976
H    0.58645982   0.94808966  -0.34948987
H    0.60755974  -0.15905994   1.03793955
H    2.87833881   0.08848996  -1.03431964
H    2.55274916   1.22614956   1.80704927
H    3.14349866   2.06132936   0.36410987
H    5.06579781   0.75271976   0.36917987
H    5.21702814  -1.36202955   1.12792957
H    4.11941814  -0.99841958   2.50993896

