%chk=mol_0535.chk
# wB97XD/Def2SVP opt pop=full gfinput

C 4 H 10 N 2

1 2
N    4.354043  -0.879535  -2.652911
C    4.574895   0.126536  -0.083545
C    6.061145   2.600036  -0.073945
C    4.689412   4.984304  -1.061213
C    5.955945   6.318790   1.184499
N    6.102511   3.833158   2.460726
H    3.295323  -2.488165  -2.601454
H    6.095198  -1.412230  -3.280546
H    5.525181  -1.282519   1.102636
H    2.672281   0.404534   0.687936
H    7.968862   2.375008  -0.864909
H    2.621919   4.920186  -0.940932
H    5.244595   5.643875  -2.937711
H    7.806742   7.141728   0.748842
H    4.800925   7.728205   2.157935
H    7.718190   3.547715   3.467326

