%chk=mol_2788.chk
# wB97XD/Def2SVP opt pop=full gfinput

C 6 H 12 O 1

1 2
C    1.787416  -0.241942   0.302243
C    4.631303  -0.111229   0.098171
C    5.832149  -2.700986   0.099872
C    5.954640   2.078037  -0.064515
C    4.743382   4.656890  -0.249860
C    8.807296   2.221071  -0.058128
O    9.671996   2.639173  -2.561240
H    0.920901   1.535610   0.896845
H    1.239793  -1.646197   1.723241
H    0.967124  -0.802775  -1.512386
H    4.775753  -3.974510  -1.146459
H    5.809207  -3.496277   2.009875
H    7.776771  -2.708034  -0.592165
H    2.758074   4.595379  -0.813395
H    5.703779   5.804861  -1.682385
H    4.882277   5.640530   1.565279
H    9.718804   0.522547   0.684156
H    9.452392   3.789732   1.130113
H    8.738472   1.476556  -3.635020

