%chk=mol_3310.chk
# wB97XD/Def2SVP opt freq pop=full gfinput

C 6 H 12 O 1

1 2
C    1.83955932  -0.62390971  -1.18441963
O    1.68820930   0.47371984  -0.29301989
C    2.92782879   1.12160957   0.07602997
C    3.76383877   0.35616988   1.05576956
C    3.56848860   2.01622915  -0.95697963
C    2.80111909   2.62998891   0.18279994
C    3.50628877   3.42911887   1.22423947
H    2.44180918  -0.34588987  -2.05401921
H    0.84635967  -0.92216963  -1.53089941
H    2.29415917  -1.47321939  -0.66748977
H    4.70161819   0.86708969   1.29390955
H    4.02942848  -0.62652975   0.65479976
H    3.21041870   0.20669992   1.98814929
H    3.12100887   2.06985927  -1.94292927
H    4.64880848   2.10125923  -0.96338964
H    1.82401931   3.05084896  -0.03302999
H    4.56175804   3.15813875   1.32282948
H    3.02226901   3.29328895   2.19629908
H    3.46153879   4.49304819   0.97002965

