%chk=mol_0522.chk
# wB97XD/Def2SVP opt freq pop=full gfinput

C 5 H 9 N 1

1 2
N    0.99182963   0.03761999  -0.01219000
C    2.44542909   0.00342000  -0.01752999
C    2.99913907  -1.26832962   0.63856971
C    3.30923867  -0.89832962   2.08941913
C    3.46847868   0.58441979   2.01985931
C    2.98297882   1.07459962   0.87297970
H    0.63389981  -0.73853976  -0.56460983
H    0.67543977   0.88852966  -0.47249982
H    2.82367897   0.10323996  -1.04013956
H    3.92895842  -1.56125939   0.13148995
H    2.32321930  -2.12801933   0.56982976
H    4.22224855  -1.39123952   2.43539906
H    2.48483920  -1.16157961   2.76005888
H    3.87283850   1.18305957   2.82373905
H    2.95235872   2.12622929   0.62548977

