%chk=mol_3581.chk
# wB97XD/Def2SVP opt freq pop=full gfinput

C 5 H 10 O 2

1 2
O    1.04975963  -0.00774000   0.18279994
C    2.47603917   0.00446000   0.05660998
C    2.91176891  -1.35557961  -0.48098981
C    2.53864908  -1.50597942  -1.95494926
C    3.02789903  -0.31024989  -2.76037884
O    2.51526904   0.91192967  -2.22540903
C    2.94623899   1.12914956  -0.87597966
H    0.72515976   0.89874965   0.04811998
H    2.88255882   0.16254994   1.05994964
H    2.44327927  -2.16463923   0.09160997
H    3.99828839  -1.45826948  -0.37432986
H    2.95999885  -2.43322921  -2.35924911
H    1.44770944  -1.57521939  -2.04089928
H    4.12380838  -0.26564991  -2.78025913
H    2.68298912  -0.39046985  -3.79549837
H    4.03763866   1.22347963  -0.86072969
H    2.51949906   2.08694911  -0.56061983

