%chk=mol_1613.chk
# wB97XD/Def2SVP opt pop=full gfinput

C 4 H 7 N 3

1 2
C    1.921190  -0.029291   0.550553
C    4.762110   0.000000   0.000000
N    5.264380  -1.272560  -2.446307
N    4.753247  -3.786917  -2.528794
C    4.560363  -4.640790  -4.807520
C    5.672996   2.572238   0.000000
N    6.399047   4.622572   0.000000
H    1.505469   0.927251   2.341012
H    1.197312  -1.962915   0.699085
H    0.848525   0.942217  -0.933581
H    5.737738  -1.052464   1.496380
H    7.124041  -0.963137  -2.893019
H    4.147193  -6.657921  -5.116547
H    4.766551  -3.452624  -6.509861

