%chk=mol_2690.chk
# wB97XD/Def2SVP opt pop=full gfinput

C 6 H 8 O 1

1 2
C    1.889726   0.000000   0.000000
C    4.618491   0.000000   0.000000
C    6.867567   0.000000   0.000000
C    9.577246   0.002702   0.074077
C   11.000493  -1.372055  -1.972439
C   11.009771   1.463007  -1.909927
O   13.341277   2.624395  -1.140412
H    1.145117   1.929146   0.021978
H    1.145023  -0.983678   1.659614
H    1.145193  -0.945468  -1.681762
H   10.386010  -0.051590   1.957624
H    9.940716  -2.280729  -3.472202
H   12.709277  -2.369225  -1.449420
H    9.929226   2.434855  -3.359064
H   14.158281   1.729893   0.239674

