%chk=mol_4488.chk
# wB97XD/Def2SVP opt freq pop=full gfinput

C 4 H 10 N 2 O 1

1 2
C    1.02995968   0.04877998  -0.01610999
C    2.55700898  -0.04240999   0.02092999
C    3.02579880  -0.80606967   1.26196957
N    3.03763890  -0.75164974  -1.17986953
C    3.12867880   1.37492943  -0.00898000
N    3.36474872   2.04964924   1.07350957
O    3.83175850   3.32194853   0.72246975
H    0.68215972   0.60377973  -0.89570969
H    0.64655977   0.57505977   0.86600965
H    0.56829977  -0.94489962  -0.03937998
H    2.66558909  -0.33188990   2.18243909
H    4.12030840  -0.83859968   1.32057941
H    2.65743899  -1.83858931   1.26123953
H    2.60224891  -0.36008987  -2.01472926
H    2.73446894  -1.72486937  -1.14148962
H    3.27157879   1.83636928  -1.00374961
H    4.01290846   3.72545862   1.59198940

