%chk=mol_4086.chk
# wB97XD/Def2SVP opt freq pop=full gfinput

C 5 H 11 N 1 O 1

1 2
C    0.78437966  -0.55727977  -0.37480986
C    2.23805928  -0.60085976  -0.69848973
N    2.74081898   0.05000998  -1.90915930
C    3.07589889   0.65418977  -0.61814976
C    4.48083830   0.62078977  -0.08008996
C    5.44039774  -0.33827987  -0.78011972
O    5.64478827   0.06045998  -2.13105917
H    0.64155972  -0.59427983   0.71009970
H    0.27320990  -1.41991949  -0.81414974
H    0.29984987   0.35165986  -0.74882972
H    2.68846893  -1.55170941  -0.44200984
H    1.99955916   0.57885975  -2.37521911
H    2.57664919   1.58542931  -0.37324986
H    4.43670845   0.37180987   0.98668963
H    4.88649845   1.63688946  -0.15857995
H    5.07588816  -1.36935949  -0.77182972
H    6.41328764  -0.32145986  -0.28036991
H    4.74813795   0.06094998  -2.52884912

