%chk=mol_1555.chk
# wB97XD/Def2SVP opt freq pop=full gfinput

C 5 H 14 N 2

1 2
C    1.02495956  -0.05192998  -0.01438999
C    2.54467893  -0.03914998   0.04133998
N    3.03359890   1.33840954  -0.02357999
C    4.50089836   1.37283957   0.02855999
C    5.02297831   2.82263899  -0.00636000
N    6.49041796   2.84639883   0.03934998
C    6.98853731   4.21563816   0.03570999
H    0.65581971  -1.08114958   0.03422999
H    0.65952975   0.39378983  -0.94542968
H    0.59140980   0.50131983   0.82523966
H    2.93600893  -0.62092978  -0.80100971
H    2.87327886  -0.51971978   0.97025961
H    2.65782881   1.86688924   0.76423973
H    4.91000795   0.82281971  -0.82787967
H    4.85479784   0.88415968   0.94494969
H    4.61813831   3.37015867   0.85385966
H    4.66839838   3.31687880  -0.91946965
H    6.85575771   2.35716915  -0.77800971
H    6.64082718   4.76522827   0.91629964
H    6.68198776   4.75309849  -0.86743969
H    8.08251667   4.20465851   0.06601997

