%chk=mol_3931.chk
# wB97XD/Def2SVP opt freq pop=full gfinput

C 6 H 9 N 1

1 2
C    0.55649984   1.19537961   0.65418977
C   -0.85418969   0.74638969   0.42098984
C   -0.87187970  -0.01228000  -0.85159963
C    0.52776980  -0.01918999  -1.38623941
N    1.20465958   0.00025000  -0.02453999
C    0.55735976  -1.17663956   0.68762976
C   -0.85372972  -0.73521972   0.44167981
H    0.80590969   2.13153934   0.14475995
H    0.82683969   1.25270951   1.71316946
H   -1.67385936   1.34416950   0.76690972
H   -1.70517933  -0.02200999  -1.52498949
H    0.77632976  -0.92586964  -1.94571924
H    0.77564973   0.87148964  -1.97075927
H    0.82764971  -1.20381963   1.74740934
H    0.80740970  -2.12613916   0.20436992
H   -1.67265940  -1.32347953   0.80422968

