%chk=mol_0179.chk
# wB97XD/Def2SVP opt pop=full gfinput

C 4 H 9 N 1

1 2
C    2.116285  -0.311578   0.006520
N    4.844445  -0.123739  -0.295912
C    5.712850   2.449406   0.181735
C    8.526520   2.541984  -0.110965
C    9.756940   4.034603  -1.742290
H    1.515164  -2.256900  -0.358878
H    1.117017   0.921601  -1.320711
H    1.541582   0.164104   1.936610
H    5.313003  -0.600196  -2.103246
H    5.242837   3.018970   2.117684
H    4.794575   3.781871  -1.114938
H    9.609106   1.302437   1.121534
H    8.762282   5.307617  -3.006176
H   11.806348   4.003536  -1.845242

