%chk=mol_4546.chk
# wB97XD/Def2SVP opt pop=full gfinput

C 5 H 7 N 1 O 1

1 2
C    1.797035  -0.171190  -0.475020
C    4.244136  -0.414304   0.118221
C    6.010425   1.752211  -0.158000
O    5.364989   3.838336  -0.923717
C    8.707234   1.214281   0.409371
C   10.005042   2.704859   2.462408
N    9.291651   0.075570   2.876995
H    0.503744  -1.747619  -0.268360
H    1.031488   1.604113  -1.168871
H    5.004675  -2.179893   0.820462
H    9.843791   0.619698  -1.187013
H    8.918638   4.113726   3.477342
H   12.000347   3.109412   2.261246
H   10.840981  -1.070057   2.751479

