%chk=mol_7131.chk
# wB97XD/Def2SVP opt freq pop=full gfinput

C 6 H 15 N 1

1 2
C    3.25893879  -0.76051974   1.66821933
C    2.75689888  -0.10683995   0.37813985
C    1.25604951  -0.37299985   0.22044991
C    3.09343886   1.40848947   0.26019990
C    2.46865916   2.25929928   1.37595952
C    4.62088823   1.63040948   0.18323994
N    4.96017790   3.01292896  -0.14220995
H    4.34572840  -0.67713976   1.76471925
H    3.01725888  -1.82986939   1.67503941
H    2.79962897  -0.31494987   2.55667925
H    3.25365877  -0.61634976  -0.45820981
H    0.68213969  -0.00530000   1.07744956
H    1.06488967  -1.44905949   0.13666995
H    0.86572969   0.10312996  -0.68536973
H    2.66274905   1.75633943  -0.69003975
H    2.89728904   2.01909924   2.35332918
H    1.38634944   2.11613917   1.43071949
H    2.63518906   3.32622862   1.19514966
H    5.05313778   0.97685969  -0.58276975
H    5.09429836   1.37805951   1.13772964
H    4.55976820   3.26023865  -1.04536963
H    5.97020769   3.09790874  -0.24231991

