%chk=mol_5205.chk
# wB97XD/Def2SVP opt freq pop=full gfinput

C 4 H 10 N 2 O 1

1 2
C    0.86679965   0.77311969   0.09848996
N    2.30214906   0.68574977   0.18416993
C    3.09490871   1.79458928  -0.03148999
O    2.64408898   2.91719890  -0.22922991
C    4.57537842   1.47906947   0.02829999
C    5.41897774   2.70451903  -0.30153990
N    6.84597731   2.38337898  -0.22868992
H    0.43575984  -0.13904995   0.51727980
H    0.58239979   0.87060964  -0.95257968
H    0.51050979   1.64478946   0.65404975
H    2.73333907  -0.22981991   0.18586993
H    4.78836823   0.67215979  -0.68326974
H    4.80590820   1.11829960   1.03796959
H    5.19798803   3.52484870   0.39082986
H    5.18641806   3.05960894  -1.31185949
H    7.09846735   2.17581916   0.73722976
H    7.38189697   3.21390867  -0.48238981

