%chk=mol_4012.chk
# wB97XD/Def2SVP opt pop=full gfinput

C 4 H 7 N 1 O 2

1 2
C    1.941146  -0.067161   0.202484
C    4.795860   0.043180  -0.013266
C    5.965639   2.223149   1.424778
N    8.266871   1.138220   2.286739
C    8.047909  -1.437458   2.354637
O    9.514677  -2.862330   3.408272
O    5.894925  -2.165154   1.128715
H    1.210615  -1.725679  -0.796916
H    1.065201   1.626279  -0.596549
H    1.347318  -0.259573   2.176095
H    5.363591   0.064761  -2.006077
H    4.861037   2.769715   3.087038
H    6.324252   3.885258   0.254055
H    9.548389   1.976030   3.430684

