%chk=mol_5775.chk
# wB97XD/Def2SVP opt freq pop=full gfinput

C 4 H 6 N 2 O 1

1 2
N    2.02373934  -0.37980986   1.39703953
C    2.40961933  -0.00839000   0.02759999
C    2.91362906   1.41640937  -0.00154000
N    2.22305918   2.51442909   0.03098999
O    0.84848964   2.25116897   0.08895997
C    4.32961845   1.68248940  -0.04976998
C    5.51030827   1.90330935  -0.08910996
H    1.54306936  -1.27732944   1.37257946
H    1.33007944   0.30116987   1.71624935
H    1.54778934  -0.10195996  -0.64082974
H    3.19135880  -0.68779975  -0.32635990
H    0.46876982   3.15056872   0.11017995
H    6.55554771   2.10606933  -0.11762996

