%chk=mol_5840.chk
# wB97XD/Def2SVP opt freq pop=full gfinput

C 4 H 8 N 2 O 1

1 2
N    1.13418949   1.60183930  -0.89443970
C    2.26650906   0.97874963  -0.51920980
N    2.43700910  -0.29072991  -0.48533982
O    3.21802878   1.85821927  -0.15265994
C    4.49286795   1.29319954   0.18576993
C    5.42483807   2.43057919   0.47918981
C    6.21964788   2.50684905   1.55467939
H    1.09781969   2.56650901  -0.58684981
H    0.27462989   1.09467959  -0.73907971
H    1.58878946  -0.74262971  -0.83136970
H    4.88312817   0.72625971  -0.66720980
H    4.38645840   0.63601977   1.05749965
H    5.44365788   3.23542881  -0.25197992
H    6.24050808   1.72337937   2.30472922
H    6.87400723   3.36086869   1.70132935

