%chk=mol_3533.chk
# wB97XD/Def2SVP opt pop=full gfinput

C 6 H 6 O 1

1 2
O    2.082384  -0.001946   1.017221
C    4.288696  -0.019351   0.397957
C    6.255164   2.056835  -0.107355
C    7.955879  -0.034431  -1.282349
C    6.197017  -2.125904  -0.196645
C    8.121249   0.021694  -4.021413
C    8.242229   0.068144  -6.285040
H    6.999734   2.898197   1.628679
H    5.603586   3.547885  -1.379406
H    9.840768  -0.079085  -0.416779
H    5.505056  -3.542632  -1.530792
H    6.916945  -3.060884   1.501444
H    8.339003   0.109604  -8.297996

