%chk=mol_5414.chk
# wB97XD/Def2SVP opt freq pop=full gfinput

C 4 H 6 N 2 O 1

1 2
C    1.02899969  -0.18306993  -0.41506985
O    2.28834915   0.07383997   0.21200992
C    2.90817881   1.24748957  -0.05360998
N    2.44699907   2.44086909  -0.26620990
N    1.11263955   2.65114903  -0.14275995
C    4.34398794   1.18545961  -0.05111998
C    5.54468775   1.12951958  -0.04705998
H    0.95275962  -1.26278949  -0.57414979
H    0.95026964   0.30368990  -1.39218950
H    0.21512993   0.11884996   0.24938990
H    0.90893966   3.63685846  -0.32601988
H    0.80801970   2.48171902   0.81958967
H    6.60852766   1.08463967  -0.04395999

