%chk=mol_1262.chk
# wB97XD/Def2SVP opt freq pop=full gfinput

C 6 H 11 N 1

1 2
C    2.81079888  -1.58703935   1.38699949
C    2.45018911  -0.13781995   1.15574956
C    1.28894949   0.34053987   1.64428937
C    3.46114874   0.64984977   0.32936990
N    3.01343894   1.99200916  -0.02628999
C    4.77540779   0.78626972   1.04970956
C    5.94411755   0.30335990   0.60283977
H    3.71341872  -1.66972935   1.99964929
H    2.98761868  -2.09158921   0.43154982
H    2.01424909  -2.13280940   1.90330935
H    0.61438978  -0.29254991   2.21401906
H    0.96730959   1.36558950   1.50095940
H    3.60991859   0.10786996  -0.61342978
H    2.82157898   2.51182914   0.82565969
H    2.13424921   1.91440928  -0.53104979
H    4.76151800   1.31407952   2.00029922
H    6.01700783  -0.22327992  -0.34325987
H    6.85635757   0.44158983   1.17427957

