%chk=mol_4889.chk
# wB97XD/Def2SVP opt freq pop=full gfinput

C 5 H 11 N 1 O 1

1 2
C    3.15522885  -1.07174969  -0.95135963
C    2.58978915  -0.10038996   0.07742997
O    2.72209883  -0.67572975   1.38570940
C    3.22767878   1.32378948   0.03634999
N    2.57377911   2.17299914   1.04565966
C    4.73257828   1.31263947   0.22143993
C    5.44200802   1.89452922   1.20019948
H    3.07766867  -0.66516972  -1.96374929
H    2.60266900  -2.01712918  -0.91505963
H    4.19939852  -1.32204950  -0.74376971
H    1.51287949  -0.00391000  -0.10744996
H    3.66657853  -0.62732977   1.62220943
H    3.03097892   1.76470935  -0.94843966
H    2.52072906   1.62347937   1.90752935
H    1.59907937   2.30382919   0.77612972
H    5.29274797   0.79143971  -0.55306983
H    4.96584797   2.46359921   1.99342918
H    6.52526760   1.83480930   1.21570957

