%chk=mol_1471.chk
# wB97XD/Def2SVP opt freq pop=full gfinput

C 5 H 8 N 2

1 2
C    2.34297895  -0.50530982  -1.40301943
C    2.50439906   0.05381998  -0.00064000
N    2.99786901   1.41430950  -0.00633000
C    2.23963904   2.55061913  -0.02491999
C    3.14989877   3.58182859  -0.00684000
N    4.43270826   3.09840894   0.02717999
C    4.30969858   1.79010940   0.02974999
H    1.96818924  -1.53257942  -1.36175954
H    3.29840875  -0.51113981  -1.93823934
H    1.63651943   0.09322996  -1.98783934
H    3.20768881  -0.55496979   0.57829976
H    1.54485941   0.04897998   0.52818978
H    1.15930963   2.53731894  -0.05067998
H    2.95040894   4.64547825  -0.01521999
H    5.12721825   1.08130956   0.05478998

