%chk=mol_1966.chk
# wB97XD/Def2SVP opt freq pop=full gfinput

C 5 H 12 N 2

1 2
N    2.25041914  -0.42619982  -1.44212937
C    2.37465930   0.02082999  -0.05785998
C    3.19838881   1.29878950   0.01747999
C    2.52606916   2.59507895  -0.52287978
C    3.20327878   3.34850883   0.64285976
C    3.20746875   2.00387931   1.40311956
N    4.50296831   1.82020938   2.05017924
H    1.69872940  -1.28302956  -1.47091937
H    3.17027879  -0.67132974  -1.80655932
H    2.85277891  -0.76787972   0.53317982
H    1.37246943   0.17902993   0.35539988
H    4.20162821   1.15547955  -0.41376984
H    1.43086958   2.59869909  -0.46745980
H    2.83147907   2.90512896  -1.52569938
H    4.18532848   3.75714874   0.37359986
H    2.60479903   4.14466858   1.09442961
H    2.33332920   1.83242941   2.03822923
H    5.31032801   2.03594923   1.46711946
H    4.65633821   0.87963963   2.40981913

