%chk=mol_6198.chk
# wB97XD/Def2SVP opt pop=full gfinput

C 5 H 3 N 1 O 1

1 2
O    2.246242  -0.591371   0.957543
C    4.228829  -0.079595  -0.138781
C    5.609822   2.425369   0.000000
C    4.769915   3.987908   2.154042
C    4.087119   5.273319   3.897012
C    8.292893   1.928088   0.000000
N   10.431572   1.531718   0.000000
H    5.021664  -1.458188  -1.493658
H    5.125221   3.421330  -1.753420
H    3.470860   6.400200   5.449970

