%chk=mol_5089.chk
# wB97XD/Def2SVP opt pop=full gfinput

C 5 H 11 N 1 O 1

1 2
C    3.646113  -1.177413   1.158515
N    6.232449  -1.060533   0.213463
C    7.232643   1.518830   0.415513
C    9.977395   1.571931  -0.465213
C   11.102141   4.198631  -0.276259
C   13.869947   4.427213  -0.901985
O    9.843073   6.071822   0.286161
H    2.941586  -3.114741   0.993826
H    2.386063   0.053082   0.072830
H    3.555104  -0.650330   3.156976
H    6.243145  -1.610141  -1.634084
H    7.131732   2.167894   2.381943
H    6.095236   2.815862  -0.734310
H   10.117707   0.961719  -2.439429
H   11.121152   0.300315   0.703564
H   14.962322   3.147112   0.295062
H   14.506766   6.362009  -0.553690
H   14.166294   3.967669  -2.893265

