%chk=mol_0273.chk
# wB97XD/Def2SVP opt freq pop=full gfinput

C 4 H 6 N 2

1 2
C    0.98019964   0.06416997  -0.00479000
C    2.45977902  -0.02908999  -0.00600000
N    3.21529889   1.07584953  -0.01131999
N    4.47443819   0.61062980  -0.01103000
C    4.54963827  -0.75048971  -0.00600000
C    3.25203872  -1.20051956  -0.00268000
H    0.64125979   1.10525966   0.00920000
H    0.56803983  -0.43790984   0.87616962
H    0.56847984  -0.41432986  -0.89897966
H    5.23436832   1.28212941  -0.01451999
H    5.49927759  -1.26538956  -0.00528000
H    2.91799879  -2.22839928   0.00154000

