%chk=mol_5581.chk
# wB97XD/Def2SVP opt freq pop=full gfinput

C 6 H 9 N 1

1 2
C    1.04175961   0.04196998   0.54787982
C    2.29075909  -0.04382998   0.07181998
C    3.03902864  -1.31591952  -0.18742992
C    4.08953857  -0.92665964  -1.18579960
C    5.26405811  -0.07721997  -0.78970975
N    4.09594870   0.53860980  -1.41788948
C    3.11748886   1.10137951  -0.45507985
H    0.53962976   0.99998963   0.64138973
H    0.48880982  -0.84397972   0.84300965
H    2.38479924  -2.09278917  -0.59520978
H    3.50780869  -1.68613935   0.73037970
H    4.14309835  -1.55132949  -2.06580925
H    5.45237780   0.11952996   0.25860992
H    6.15287781  -0.12546995  -1.40797937
H    3.62964869   1.61907935   0.36500984
H    2.48645902   1.82911932  -0.97644961

