%chk=mol_6149.chk
# wB97XD/Def2SVP opt freq pop=full gfinput

C 4 H 5 N 1 O 2

1 2
O    1.03010964   0.38976985  -0.76520967
C    2.01710916   0.24180992  -0.04971998
C    3.16682863   1.20227957  -0.02351999
C    3.78745866   1.31761944   1.34481955
O    3.22380877   2.49990916   1.92389929
N    2.79302907   3.33699870   0.86778969
C    2.75678897   2.60937905  -0.19567993
H    2.14552927  -0.68868971   0.52956980
H    3.89567852   0.88750964  -0.77420974
H    4.87202835   1.46063948   1.28079951
H    3.58606863   0.46711981   2.00266910
H    2.42676926   2.98622894  -1.17418957

