%chk=mol_6128.chk
# wB97XD/Def2SVP opt freq pop=full gfinput

C 4 H 7 N 1 O 2

1 2
O    1.81951940  -0.37051985  -1.18931949
C    2.04495931   0.17181994   0.10842996
C    3.15350890   1.19377959   0.01839999
C    2.82203913   2.52179909  -0.70157975
N    3.36753893   3.21223879   0.47609982
C    3.30988860   2.09453917   1.25183952
O    3.29847884   1.97306919   2.45386910
H    1.17261958  -1.09141958  -1.08878958
H    2.32806897  -0.64644974   0.77858967
H    1.10681951   0.60921979   0.46631980
H    4.11161852   0.75227976  -0.28748989
H    1.76219940   2.74301887  -0.86068970
H    3.39333868   2.71924901  -1.61090934
H    3.06719875   4.08333874   0.89481962

