%chk=mol_0678.chk
# wB97XD/Def2SVP opt freq pop=full gfinput

C 5 H 6 O 1

1 2
C    1.45783949  -0.53428984  -0.21283992
C    2.74679899  -0.24042992  -0.00980000
C    3.26954865   1.10287964  -0.09857997
C    4.56236839   1.38572943   0.10140996
C    5.04121828   2.77711892  -0.00268000
O    6.22026777   3.05972886   0.17352992
H    1.10890961  -1.55986941  -0.13571995
H    0.71945971   0.22243991  -0.45883983
H    3.43890882  -1.04502964   0.23361990
H    2.56077909   1.89348924  -0.33906987
H    5.31094790   0.63976979   0.34245986
H    4.28467798   3.54075861  -0.24600990

