%chk=mol_3419.chk
# wB97XD/Def2SVP opt pop=full gfinput

C 5 H 8 O 2

1 2
C    8.423454  -1.688659   1.044678
O    6.195240  -0.257078   0.566256
C    6.452432   2.311078   0.376622
C    8.559288   3.707756   0.514591
C    8.582739   6.510163   0.302507
C    6.131273   7.955577   0.251617
O   10.636588   7.592447   0.167354
H    7.884655  -3.680449   1.172877
H    9.278990  -1.140695   2.847534
H    9.777991  -1.489010  -0.506352
H    4.585704   3.101626   0.071413
H   10.416057   2.886405   0.779247
H    4.897414   7.344137   1.791725
H    5.200867   7.703015  -1.574331
H    6.524752   9.966945   0.528311

