%chk=mol_4439.chk
# wB97XD/Def2SVP opt pop=full gfinput

C 4 H 10 N 2 O 1

1 2
C    1.970210  -0.823467   0.548984
C    4.542165  -0.115557  -0.552915
C    5.287699  -1.977220  -2.628817
C    4.512817   2.588811  -1.557645
O    4.797164   3.143125  -3.793550
N    4.150273   4.401286   0.311748
N    4.235065   6.985637  -0.341133
H    1.476575   0.384881   2.154307
H    1.966902  -2.781979   1.217135
H    0.471373  -0.619036  -0.864795
H    5.973632  -0.211271   0.944202
H    3.920842  -1.961914  -4.184099
H    5.394582  -3.905629  -1.886041
H    7.140141  -1.496569  -3.418118
H    4.203960   3.916646   2.172146
H    2.512126   7.443631  -1.099216
H    5.432396   7.139575  -1.867106

