%chk=mol_2038.chk
# wB97XD/Def2SVP opt pop=full gfinput

C 5 H 10 N 2

1 2
N    2.042681   0.643452   0.242187
C    4.681022  -0.047527  -0.217980
C    5.038180  -1.496512  -2.648262
C    3.307210  -2.047254  -4.417102
C    6.193237   2.371531  -0.150139
C    7.120526   3.442911   2.325365
N    8.883413   2.309642   0.533904
H    1.915408   1.428576   1.993774
H    1.015331  -0.983054   0.330154
H    5.281350  -1.293045   1.328383
H    6.963792  -2.157803  -2.953415
H    1.358770  -1.426743  -4.261408
H    3.827527  -3.110054  -6.092855
H    5.664832   3.678881  -1.638563
H    6.804167   2.380242   4.044694
H    7.202956   5.476691   2.543344
H    9.842809   3.667202  -0.449131

