%chk=mol_3673.chk
# wB97XD/Def2SVP opt pop=full gfinput

C 5 H 6 O 2

1 2
O    5.652794  -2.139189  -0.480104
C    4.362357   0.146832   0.086379
C    6.245998   2.165834   0.612649
O    6.716805   3.870443  -1.437496
C    5.438386   4.894013   0.727261
C    6.938016   6.665990   2.111259
C    8.193361   8.156417   3.274971
H    4.390250  -3.336104  -1.068621
H    3.180352  -0.174233   1.752381
H    3.141027   0.634003  -1.511989
H    7.822332   1.538124   1.752041
H    3.451056   5.335018   0.510661
H    9.318674   9.477203   4.294648

