%chk=mol_3669.chk
# wB97XD/Def2SVP opt pop=full gfinput

C 5 H 10 O 2

1 2
O    2.238929   0.541085  -2.744884
C    3.189650   0.246137  -0.244039
C    5.476313   1.908775   0.205961
C    6.861312   1.294935   2.619727
O    5.366898   2.043115   4.719761
C    7.029762   2.844605  -2.020212
C    5.356070   4.656852  -0.614822
H    0.833615  -0.629317  -2.909574
H    3.686383  -1.745880   0.016686
H    1.680061   0.739677   1.082945
H    8.688621   2.259262   2.743712
H    7.216694  -0.738543   2.762799
H    5.149787   3.862638   4.580280
H    6.468854   2.309586  -3.918253
H    9.056323   3.048431  -1.802648
H    6.260228   6.083841   0.542729
H    3.661911   5.315913  -1.564372

