%chk=mol_7004.chk
# wB97XD/Def2SVP opt freq pop=full gfinput

C 5 H 8 N 2

1 2
C    2.38118911  -0.48747981  -1.40421939
C    2.44884920   0.03242999   0.01892999
C    2.99855876   1.42135942   0.04484998
N    2.26880908   2.49229908   0.11376996
N    3.14103866   3.62291884   0.09867996
C    4.35594797   3.19123888   0.01176000
C    4.45498800   1.71117938  -0.04207999
H    1.95784926  -1.49643946  -1.42208946
H    3.37645864  -0.52693981  -1.85905933
H    1.75584936   0.15867993  -2.02943921
H    3.08863878  -0.61218977   0.63005972
H    1.44822943   0.03609999   0.46381983
H    5.24608803   3.83277869  -0.02148999
H    4.88743782   1.38094950  -0.98665965
H    5.00273848   1.31991947   0.81552970

