%chk=mol_4192.chk
# wB97XD/Def2SVP opt freq pop=full gfinput

C 5 H 11 N 1 O 1

1 2
C    1.04278958   0.04152998   0.00192000
C    2.55958891  -0.01430999   0.03280999
O    3.07351899   1.04478967   0.85064971
C    4.39676809   0.64960974   1.22373950
C    4.38465834  -0.86236966   1.35390949
C    3.11625886  -1.30902946   0.64053977
N    3.36847878  -2.37953901  -0.32273990
H    0.62510973  -0.76566970  -0.60761982
H    0.70592976   1.00029957  -0.40590984
H    0.62759978  -0.02933999   1.01280963
H    2.94793892   0.14027995  -0.98246962
H    5.08443785   0.96676964   0.43144983
H    4.68513870   1.15088952   2.15263915
H    5.30743790  -1.29659951   0.95463961
H    4.33549833  -1.15086949   2.40944910
H    2.41976905  -1.69613934   1.39502954
H    4.03019857  -2.06244922  -1.03019965
H    2.50875926  -2.60276890  -0.82183969

