%chk=mol_5090.chk
# wB97XD/Def2SVP opt freq pop=full gfinput

C 5 H 11 N 1 O 1

1 2
C    0.88378966   2.32616925  -0.54443979
N    1.80786932   1.33216953  -0.01084000
C    3.19046879   1.80834925  -0.10556996
C    4.17080832   0.74887967   0.41043985
C    4.12311840  -0.57062978  -0.35773987
C    4.59960842  -0.45700982  -1.78515923
O    5.21070814   0.50317985  -2.24340916
H   -0.13974994   1.94515920  -0.47611982
H    1.08858967   2.53128910  -1.60024941
H    0.93350965   3.26338887   0.01935999
H    1.57819939   1.15944958   0.96796966
H    3.31193876   2.71750903   0.49606982
H    3.43143868   2.06753922  -1.14214957
H    3.95888853   0.54661977   1.46794951
H    5.18580818   1.16308951   0.36996987
H    3.10928893  -0.98320967  -0.37243986
H    4.76833820  -1.30640948   0.13528995
H    4.41665840  -1.34954941  -2.40805912

