%chk=mol_0231.chk
# wB97XD/Def2SVP opt pop=full gfinput

C 5 H 7 N 1

1 2
C    1.876725  -1.823548  -0.060887
C   -0.839190  -2.656294  -0.348314
C   -2.375877  -0.648724  -0.089384
C   -1.038216   1.729950   0.416099
N    0.695552   2.745791  -1.455807
C    1.738775   1.001271   0.408993
H    2.748947  -2.783132   1.549953
H    2.963563  -2.236642  -1.770447
H   -1.430145  -4.573213  -0.718946
H   -4.415874  -0.735859  -0.221136
H   -1.723638   2.965018   1.895452
H    0.432407   1.874098  -3.157392
H    2.987941   1.741628   1.841462

