%chk=mol_6102.chk
# wB97XD/Def2SVP opt freq pop=full gfinput

C 5 H 11 N 1 O 1

1 2
O    2.01640916  -0.26507989  -1.39845943
C    2.30422902   0.08385997  -0.04987998
C    3.08334875   1.38935947  -0.02123999
C    2.29328918   2.58120894  -0.55037975
C    2.96264887   3.74578857   0.14872995
N    3.17687893   3.23912883   1.50272942
C    3.50393867   1.81462932   1.38497949
H    1.49229944  -1.08412957  -1.37517953
H    2.89382911  -0.72489971   0.39426985
H    1.35982943   0.16940995   0.49779981
H    3.98082852   1.28365946  -0.64665973
H    1.23650944   2.51728892  -0.26238990
H    2.34784913   2.66505885  -1.64018941
H    3.92153835   3.98677850  -0.32498989
H    2.33655930   4.64226866   0.14936996
H    3.92607856   3.75010872   1.96672928
H    4.57943821   1.65420949   1.52121937
H    2.97999883   1.25708950   2.16791916

