%chk=mol_6110.chk
# wB97XD/Def2SVP opt freq pop=full gfinput

C 4 H 4 N 2 O 1

1 2
O    0.92338967  -0.11276995   0.00684000
C    2.29022908  -0.00609000  -0.00144000
C    2.94639897   1.15541959  -0.00234000
C    2.38446903   2.46910906   0.00485000
C    3.45294857   3.26190877   0.00023000
N    4.61821842   2.53687906  -0.00914000
N    4.31985807   1.30400944  -0.01062000
H    0.69486976  -1.05970955   0.00530000
H    2.80211902  -0.95977962  -0.00733000
H    1.34299946   2.73329902   0.01219000
H    3.46677876   4.34115839   0.00310000

