%chk=mol_2707.chk
# wB97XD/Def2SVP opt freq pop=full gfinput

C 6 H 8 O 1

1 2
C    0.99999964   0.00000000   0.00000000
C    2.44399905   0.00000000   0.00000000
C    3.63415861   0.00000000   0.00000000
C    5.08088827   0.00942000  -0.00765000
C    5.76528788   1.01243961   0.93218964
O    6.63756704  -0.02274999   1.45396948
C    5.78085756  -1.03835964   0.86576968
H    0.60596979   1.02085960   0.01178000
H    0.60601974  -0.52058983   0.87824970
H    0.60591978  -0.50026983  -0.88992965
H    5.49639797   0.04584998  -1.02269959
H    5.15007782   1.44326949   1.72874939
H    6.32889748   1.80566931   0.43324983
H    6.35881758  -1.78879929   0.31869987
H    5.17439842  -1.52937937   1.63418937

