%chk=mol_5471.chk
# wB97XD/Def2SVP opt pop=full gfinput

C 4 H 7 N 1 O 2

1 2
C   15.160668   2.203629  -4.991787
O   14.569127   0.712219  -2.828145
N   12.239945   1.562992  -1.852990
C   10.265427  -0.077762  -1.634556
O    8.450874   0.419236  -0.273595
C   10.370534  -2.420418  -3.184604
C    8.421470  -4.033035  -3.214462
H   13.715349   1.965372  -6.453528
H   16.975353   1.564089  -5.744654
H   15.326718   4.197441  -4.467728
H   12.341311   2.890979  -0.475776
H   12.055999  -2.798628  -4.276507
H    6.716465  -3.681470  -2.123712
H    8.492637  -5.747696  -4.335806

