%chk=mol_0016.chk
# wB97XD/Def2SVP opt pop=full gfinput

C 4 H 6

1 2
C    1.889726   0.000000   0.000000
C    4.618491   0.000000   0.000000
C    6.867567   0.000000   0.000000
C    9.596332   0.000000   0.000000
H    1.145344   1.928144   0.022053
H    1.145344  -0.983168   1.658783
H    1.145344  -0.944976  -1.680855
H   10.340714   1.928144  -0.022053
H   10.340714  -0.983168  -1.658783
H   10.340714  -0.944976   1.680855

