%chk=mol_2890.chk
# wB97XD/Def2SVP opt pop=full gfinput

C 5 H 6 O 2

1 2
C    1.872719  -0.103576   0.020617
C    4.747106   0.053045  -0.093428
C    5.730613  -1.416388  -2.260547
C    6.527435  -2.629970  -4.005728
C    5.528998   2.821399  -0.116974
O    5.833036   3.875545  -2.427372
O    5.735470   4.082980   1.812285
H    1.139221   0.932070   1.656439
H    1.237128  -2.068400   0.169225
H    1.004012   0.715035  -1.673012
H    5.543587  -0.771632   1.634632
H    7.240278  -3.731037  -5.536765
H    5.583725   2.707014  -3.833574

