%chk=mol_4787.chk
# wB97XD/Def2SVP opt freq pop=full gfinput

C 4 H 10 N 2 O 1

1 2
C    0.95695961  -0.05315998  -0.47962981
C    2.41284895  -0.12491995  -0.04889998
N    3.01760888   1.20790946  -0.09236997
N    4.33092833   1.25881946   0.24396990
C    4.88596773   2.38951898  -0.03251999
O    6.18419743   2.67651916   0.22445992
C    6.94397736   1.62579930   0.82963967
H    0.51160979  -1.05333960  -0.47239983
H    0.86343968   0.35002986  -1.49389946
H    0.37332988   0.58073980   0.19664992
H    2.95541883  -0.79940975  -0.72074974
H    2.47611904  -0.53486979   0.96539968
H    2.46376896   1.83812928   0.49479982
H    4.38883829   3.25387883  -0.50405979
H    7.96629667   1.98776925   0.97021961
H    6.97545767   0.74804974   0.17660993
H    6.53054762   1.37033951   1.81026924

