%chk=mol_1820.chk
# wB97XD/Def2SVP opt pop=full gfinput

C 7 H 10

1 2
C    1.834622  -0.139292  -0.353908
C    4.561723   0.136193   0.322274
C    5.911082   2.280673   0.248253
C    8.657138   2.515037   0.974570
C    9.103699   5.365499   1.227604
C    6.787519   6.504985   0.088326
C    5.030772   4.763773  -0.422165
H    1.482471  -2.054718  -1.051406
H    1.253531   1.169835  -1.846962
H    0.649556   0.162535   1.313700
H    5.496703  -1.582570   0.942784
H    9.855847   1.742819  -0.528575
H    9.098483   1.527012   2.739857
H   10.817303   5.949255   0.224821
H    9.278971   5.922572   3.212988
H    6.545010   8.510930  -0.205262
H    3.180088   5.172048  -1.177810

