%chk=mol_7050.chk
# wB97XD/Def2SVP opt freq pop=full gfinput

C 6 H 11 N 1

1 2
C    0.83424968  -0.11802996   0.13303995
C    2.31910920   0.00183000   0.25994989
C    3.09128881   1.07941961   0.00374000
C    2.52159905   2.42129922  -0.38891986
C    4.55927801   1.04290962   0.15519994
C    5.36841774   0.10283996  -0.70612973
N    5.37562799   1.53607941  -0.95328963
H    0.59007978  -1.02053964  -0.43682984
H    0.37179986   0.72440976  -0.38519984
H    0.38169986  -0.20994993   1.12487948
H    2.81391907  -0.91550970   0.57763976
H    1.47930944   2.54656887  -0.08342997
H    2.58554912   2.55829906  -1.47309947
H    3.08109903   3.23061895   0.09399997
H    4.92454815   1.26369953   1.15329957
H    4.86197853  -0.50008982  -1.44974947
H    6.27163744  -0.32769987  -0.29345989
H    6.23064756   1.96649933  -0.59977978

