%chk=mol_1161.chk
# wB97XD/Def2SVP opt pop=full gfinput

C 6 H 10

1 2
C    1.891540  -0.101516   0.004479
C    4.762110   0.000000   0.000000
C    5.672996   2.572238   0.000000
C    6.423746   4.692322   0.000000
C    7.334632   7.264561   0.000000
C    5.187430   9.143364  -0.342343
H    1.242041  -2.065490   0.004214
H    1.106548   0.835108  -1.666757
H    1.111858   0.832897   1.679400
H    5.472515  -1.007130  -1.664017
H    5.477787  -1.009038   1.660597
H    8.716967   7.531371  -1.518471
H    8.313604   7.672590   1.778478
H    4.210612   8.841330  -2.141797
H    5.918376  11.078198  -0.324863
H    3.791754   8.968810   1.174824

