%chk=mol_1798.chk
# wB97XD/Def2SVP opt pop=full gfinput

C 7 H 8

1 2
C    1.749168  -0.215769   0.018368
C    4.564029   0.000094   0.004932
C    5.856601   2.173185  -0.004989
C    4.834014   4.712278   0.000605
C    6.817092   6.301008  -0.009940
C    9.144555   4.845881  -0.023168
C    8.588559   2.370586  -0.019993
H    1.199277  -2.209827  -0.027061
H    0.923150   0.697290  -1.643816
H    0.949115   0.615522   1.735373
H    5.598711  -1.775341   0.002778
H    2.862803   5.220368   0.012945
H    6.735985   8.338114  -0.008126
H   11.009960   5.667553  -0.033486
H    9.904735   0.817118  -0.027344

