%chk=mol_5895.chk
# wB97XD/Def2SVP opt freq pop=full gfinput

C 4 H 6 N 2 O 1

1 2
N    1.11457956   0.12653996   0.40626985
N    2.39307904   0.04993998  -0.03410999
C    3.00068879   1.18689954  -0.20475993
C    4.43250847   1.27871954  -0.66452974
C    4.57356834   2.74722886  -0.69645977
C    3.42366862   3.28705883  -0.32005987
O    2.40741920   2.41074920  -0.00319000
H    0.59331983  -0.71354973   0.15607995
H    0.61391973   0.93880963   0.04125999
H    4.54795790   0.82945967  -1.65337944
H    5.10029793   0.81327969   0.06342997
H    5.46619797   3.28607869  -0.97579962
H    3.16736865   4.32932806  -0.22410992

