%chk=mol_6932.chk
# wB97XD/Def2SVP opt pop=full gfinput

C 5 H 6 N 2

1 2
C    5.191569  -2.260358   0.630129
C    4.323259   0.090253   0.257022
C    5.783299   2.360381   0.108999
N    4.716303   4.625634  -0.271591
N    6.662815   6.247775  -0.294004
C    8.947626   5.118304   0.057485
C    8.445148   2.584881   0.326658
H    3.886014  -3.840302   0.706399
H    7.182868  -2.677610   0.866080
H    2.293353   0.337335   0.038720
H    6.287743   8.108966  -0.560436
H   10.685437   6.189193   0.084452
H    9.815861   1.104337   0.637518

