%chk=mol_2655.chk
# wB97XD/Def2SVP opt pop=full gfinput

C 6 H 12 O 1

1 2
C    2.487749  -0.111947   1.883603
C    4.247670   0.400792  -0.327565
C    6.276593   2.235471   0.375810
O    6.908556   4.015026  -1.569418
C    5.715288   5.017280   0.646551
C    7.374392   6.645335   2.255294
C    6.609922   9.409513   2.108708
H    1.076218  -1.532625   1.368370
H    1.488084   1.610425   2.448102
H    3.536226  -0.799845   3.529328
H    3.140271   1.100444  -1.932094
H    5.128660  -1.374095  -0.929462
H    7.794704   1.406561   1.465861
H    3.771062   5.636033   0.530408
H    9.358604   6.454832   1.688074
H    7.241412   6.010803   4.222045
H    6.675609  10.097638   0.159153
H    7.877966  10.571525   3.256338
H    4.681418   9.677117   2.810646

