%chk=mol_6156.chk
# wB97XD/Def2SVP opt freq pop=full gfinput

C 4 H 9 N 1 O 2

1 2
O    1.40654945   0.33114988  -0.88643968
C    2.52652907   0.01787999  -0.06095998
C    3.39729881   1.22478962   0.10714997
N    3.27993870   2.35159922  -0.83271968
C    2.81601882   2.54760909   0.54917979
C    3.58499861   3.46045876   1.45388949
O    4.92714834   3.60552859   0.99822962
H    0.93946964  -0.50675982  -1.04804969
H    3.09315896  -0.78731972  -0.53867978
H    2.16292906  -0.32887989   0.91101968
H    4.39842796   0.97068965   0.43583983
H    2.47663927   2.15487909  -1.44503939
H    1.74538934   2.62259889   0.69827968
H    3.60416842   3.06784868   2.47443914
H    3.12358880   4.45242834   1.47081947
H    4.86913776   3.48862863   0.02724999

