%chk=mol_0842.chk
# wB97XD/Def2SVP opt pop=full gfinput

C 4 H 10 O 2

1 2
C    4.164994   7.728734   4.119905
O    4.326887   5.125429   4.746614
C    6.101983   3.728921   3.271966
C    5.332070   3.575834   0.499927
O    8.607211   4.713979   3.421198
C    9.666951   4.392593   5.869414
H    2.841203   8.618682   5.435797
H    3.428077   7.997189   2.207635
H    5.996933   8.665565   4.323637
H    6.098600   1.793898   4.015517
H    5.535915   5.404881  -0.445749
H    3.365716   2.969875   0.305890
H    6.557482   2.253272  -0.516084
H   11.593130   5.137069   5.839632
H    9.747718   2.388217   6.371306
H    8.584591   5.439198   7.284176

