%chk=mol_3367.chk
# wB97XD/Def2SVP opt freq pop=full gfinput

C 6 H 10 O 1

1 2
C    4.98864794  -0.70103973   1.29862952
O    3.64846849  -0.42772985   0.90625966
C    3.37433863   0.83361965   0.45773983
C    4.20423841   1.87600923   0.29995990
C    3.75472856   3.21641898  -0.20584992
C    4.02930880   4.29456854   0.80211967
C    4.81454802   5.35677814   0.57922977
H    5.03557825  -1.74111938   1.63463938
H    5.28876781  -0.06195998   2.13553929
H    5.67587805  -0.58766979   0.45395982
H    2.31558919   0.89514971   0.22513992
H    5.26187801   1.78915930   0.52772981
H    2.68067908   3.21358871  -0.42711982
H    4.27180815   3.42368865  -1.15039957
H    3.54168868   4.19441843   1.77027929
H    5.31723785   5.50683832  -0.37097985
H    4.96826839   6.10448790   1.35123944

