%chk=mol_6719.chk
# wB97XD/Def2SVP opt freq pop=full gfinput

C 3 H 4 O 3 S 1

1 2
O    1.13898969   0.31809989  -0.06464998
S    2.72479892   0.00538000   0.00017000
O    2.98096895  -0.62806982   1.27371955
O    3.02286887  -0.64153975  -1.25947952
C    3.31418872   1.70617938   0.00000000
C    4.75818825   1.70617938   0.00000000
C    5.94834757   1.70617938   0.00000000
H    0.75698978  -0.23727991  -0.77894968
H    2.90754914   2.19056916   0.89195967
H    2.91086888   2.18953919  -0.89415967
H    7.01482725   1.69881928   0.00174000

