%chk=mol_1046.chk
# wB97XD/Def2SVP opt freq pop=full gfinput

C 4 H 9 N 1 O 1

1 2
C    2.70132899  -0.80218971  -0.98027962
N    2.51883912  -0.00366000   0.22676991
C    3.00477886   1.37802947   0.06442998
C    2.52318907   2.21509910   1.24458945
C    4.53185844   1.44768941   0.03239999
O    5.28450823   0.51183981   0.29212990
H    2.32645917  -1.81452942  -0.80254966
H    3.75370860  -0.88869965  -1.26994956
H    2.13535905  -0.38551986  -1.82107925
H    3.05581880  -0.44237983   0.97879964
H    2.62476897   1.81383932  -0.86574972
H    2.85366893   1.79052937   2.19981909
H    1.43007946   2.28084898   1.26062953
H    2.92212892   3.23546886   1.19046950
H    4.94496822   2.43536901  -0.22858992

