%chk=mol_2251.chk
# wB97XD/Def2SVP opt freq pop=full gfinput

C 6 H 10 O 1

1 2
C    1.48548937  -0.15103994  -0.43729982
C    2.84831882   0.06909998   0.13497996
C    3.62698865  -1.12122953   0.64933974
C    4.05690861  -0.39506984  -0.59705979
C    5.05091810   0.71253973  -0.54587984
O    4.35179853   1.87194920  -0.06394997
C    3.17173886   1.44243944   0.64007974
H    1.19245946   0.68140972  -1.08822954
H    0.74701971  -0.23120992   0.36891985
H    1.43505943  -1.07098961  -1.03273964
H    3.19912887  -2.11112928   0.53501981
H    4.21906853  -1.00355959   1.55038941
H    3.95993853  -0.86810970  -1.56244946
H    5.87598753   0.48752984   0.13787995
H    5.46116829   0.94229960  -1.53313935
H    3.38699865   1.43805945   1.71417940
H    2.37805915   2.16990924   0.44661984

