%chk=mol_5212.chk
# wB97XD/Def2SVP opt freq pop=full gfinput

C 4 H 7 N 1 O 2

1 2
C    1.06416965  -0.04571998  -0.74206972
N    2.50004911  -0.08321997  -0.74243969
C    3.24070883   0.34084985   0.33714986
O    2.79312897   0.77059972   1.38797951
C    4.75204802   0.23265991   0.11835995
C    5.62349796   0.67517972   1.25453961
O    5.17610788  -0.19044992  -0.95272964
H    0.70032972  -0.46346983  -1.68324935
H    0.73226976   0.99062961  -0.63784975
H    0.68711972  -0.63185972   0.10018996
H    3.01465893  -0.39912987  -1.56079948
H    5.38278818   0.10151996   2.15294909
H    5.48129797   1.74354935   1.43464947
H    6.67175770   0.49705982   0.99925959

