%chk=mol_0193.chk
# wB97XD/Def2SVP opt freq pop=full gfinput

C 4 H 6 O 1

1 2
C   -0.36168987   1.16669953   0.13910994
O   -1.20058954  -0.00116000   0.16430993
C   -0.36385986  -1.17000961   0.12618995
C    1.02058959  -0.66780978  -0.02653999
C    1.02192962   0.66281974  -0.01911999
H   -0.48951980   1.71436942   1.07729959
H   -0.66471976   1.80041933  -0.69905972
H   -0.66809976  -1.79370940  -0.71882975
H   -0.49286982  -1.72793937   1.05798960
H    1.89118922  -1.29870951  -0.12233996
H    1.89386928   1.29407954  -0.10798996

