%chk=mol_0347.chk
# wB97XD/Def2SVP opt freq pop=full gfinput

C 5 H 11 N 1

1 2
C    0.98883969   0.02821999   0.06210998
C    2.48720908  -0.13510996   0.04836998
C    2.95118904  -1.55762935   0.19477993
C    3.28942871   0.93962961  -0.09182996
C    4.78324842   0.99367964  -0.11567996
N    5.22042799   1.54610944  -1.38988960
H    0.68248975   1.07434952  -0.04250998
H    0.57620978  -0.34575987   1.00457966
H    0.53905982  -0.53354979  -0.76278973
H    2.51853895  -2.17663932  -0.59819978
H    2.62769914  -1.96003926   1.16038954
H    4.03510857  -1.67287946   0.13728996
H    2.82205892   1.92019928  -0.19076993
H    5.25252819   0.02026999   0.03795999
H    5.12508821   1.64686942   0.69350976
H    4.93312836   0.90964967  -2.13320923
H    6.23840761   1.56131935  -1.41092944

