%chk=mol_6774.chk
# wB97XD/Def2SVP opt freq pop=full gfinput

C 5 H 10 N 2

1 2
C    0.87657970  -0.16156995  -0.11263996
C    2.36591911   0.10554996  -0.07666997
C    2.85973883   1.19402957   0.90029967
N    4.06705856   0.34781986   1.14315951
C    3.22910881  -0.83727968   0.78943968
N    4.53959846   0.36194986   2.41123915
C    5.75861788   0.78036970   2.46178889
H    0.66216975  -1.06922960  -0.68583971
H    0.34828988   0.67016977  -0.58969980
H    0.46313983  -0.29165989   0.89301962
H    2.77147889   0.23449992  -1.09070957
H    2.22406912   1.34480953   1.78254926
H    3.07202888   2.16702914   0.44772983
H    3.76008844  -1.62072933   0.24071991
H    2.70318890  -1.29381943   1.63822937
H    6.27164745   0.84329963   3.43444872
H    6.33960724   1.08887959   1.57400930

