%chk=mol_1466.chk
# wB97XD/Def2SVP opt pop=full gfinput

C 6 H 11 N 1

1 2
C    5.876160  -1.995929  -1.504883
C    4.944355   0.217432   0.085264
N    6.428432   2.501827  -0.347804
C    6.199700   3.543596  -2.919873
C    6.307603   6.331792  -2.549127
C    6.072937   6.900146  -0.103103
C    5.782486   4.553012   1.421509
H    4.815910  -3.706774  -1.024364
H    7.881027  -2.373628  -1.154831
H    5.622578  -1.648503  -3.528459
H    5.109952  -0.330815   2.077471
H    2.932269   0.545318  -0.290205
H    4.407730   3.050660  -3.836050
H    7.770894   2.889391  -4.094205
H    6.499656   7.680301  -4.067182
H    6.043873   8.783711   0.679621
H    7.085906   4.537875   3.026585
H    3.836409   4.431653   2.123032

