%chk=mol_5361.chk
# wB97XD/Def2SVP opt pop=full gfinput

C 4 H 10 N 2 O 1

1 2
C    8.297126  -0.182680  -3.964249
O    8.418408  -1.156210  -1.461231
C    8.085155   0.754492   0.395822
C   10.319096   2.570103   0.581091
C   12.859076   1.438554   1.239245
N    9.916186   4.954257   0.108716
N   11.952291   6.487864   0.244663
H    8.332143  -1.777930  -5.277740
H    9.935783   1.015671  -4.357141
H    6.546522   0.877268  -4.263260
H    7.895616  -0.184267   2.230595
H    6.328617   1.796449   0.051155
H   12.627944  -0.505540   1.900309
H   13.771719   2.529021   2.737892
H   14.056766   1.427764  -0.445352
H   11.372353   8.330914   0.159020
H   13.091966   6.257696  -1.299886

