%chk=mol_4318.chk
# wB97XD/Def2SVP opt pop=full gfinput

C 5 H 9 N 1 O 1

1 2
C    1.265701  -1.505942   2.037408
C    3.713198  -1.594097   0.594300
C    4.582359  -3.750086  -0.427569
C    5.170385   0.858597   0.422127
C    3.739069   2.862406  -1.066146
N    3.332910   2.321434  -3.557164
O    3.022579   4.867576  -0.150706
H    1.590677  -0.820179   3.961886
H    0.381914  -3.372330   2.176568
H   -0.084055  -0.244720   1.106642
H    3.540553  -5.511953  -0.263673
H    6.372043  -3.826450  -1.429786
H    7.014777   0.590143  -0.484242
H    5.538750   1.586198   2.326366
H    3.463622   0.525854  -4.197743
H    2.245278   3.552307  -4.534530

