%chk=mol_2887.chk
# wB97XD/Def2SVP opt pop=full gfinput

C 7 H 12

1 2
C    1.771524  -0.004479   0.097056
C    4.684026   0.095431   0.126177
C    5.623541  -1.435190   2.421174
C    5.647541  -1.227358  -2.251609
C    7.204921  -0.319893  -4.034338
C    5.440654   2.874821   0.223441
C    6.870100   4.046471   1.957208
H    0.989820   0.974948  -1.554980
H    0.972377   0.887378   1.788550
H    1.077730  -1.956982   0.040818
H    4.913212  -0.647552   4.201712
H    7.693774  -1.472512   2.519761
H    4.980921  -3.404625   2.331015
H    4.985343  -3.165537  -2.497613
H    7.989195   1.570929  -3.954592
H    7.745496  -1.485060  -5.634313
H    4.706419   4.033337  -1.316440
H    7.691828   3.071202   3.561510
H    7.259459   6.057291   1.795656

