%chk=mol_5813.chk
# wB97XD/Def2SVP opt pop=full gfinput

C 4 H 8 N 2 O 1

1 2
N    1.850760   0.481616   1.146327
C    4.143943  -0.006123   0.108395
N    4.755401  -2.175736  -0.800942
C    6.067967   2.203099   0.053082
C    5.110273   4.881011  -0.500910
O    5.323264   5.566207   2.149696
C    6.869381   3.342699   2.593668
H    1.697258   2.030114   2.275929
H    0.814869  -1.008074   1.748129
H    3.257378  -3.386937  -0.660913
H    7.708457   1.724734  -1.126957
H    3.166425   5.044737  -1.182099
H    6.351842   6.045706  -1.677548
H    8.871074   3.838865   2.759926
H    6.265160   2.317655   4.283348

