%chk=mol_4348.chk
# wB97XD/Def2SVP opt freq pop=full gfinput

C 5 H 11 N 1 O 1

1 2
C    1.16894960  -0.51815981  -0.04087999
C    2.67141891  -0.28780988   0.00019000
C    3.01025891   1.20253956   0.00030000
C    4.51918840   1.42999947   0.04475998
C    4.87529850   2.90095901   0.01658999
N    6.21707773   3.14882898   0.02931999
O    4.06684828   3.81955838  -0.01270000
H    0.95049965  -1.59021938  -0.05090998
H    0.72861969  -0.07296997  -0.93824965
H    0.68178976  -0.07994997   0.83538967
H    3.13357878  -0.77407968  -0.86739969
H    3.08458900  -0.76439971   0.89725971
H    2.53777909   1.68909943   0.86266965
H    2.59119916   1.67539930  -0.89662969
H    4.99634838   0.94559968  -0.81483972
H    4.93641806   0.99422961   0.96003962
H    6.91521740   2.41927910   0.04369998
H    6.51657724   4.11516857   0.00735000

