%chk=mol_0468.chk
# wB97XD/Def2SVP opt pop=full gfinput

C 5 H 11 N 1

1 2
C    5.432830  -2.094761  -0.890137
N    4.461625   0.206793   0.265714
C    6.344491   2.236510   0.304019
C    6.547504   3.985754  -1.929580
C    5.426594   4.922925   0.507448
C    6.824425   6.786706   2.088299
H    3.952003  -3.538153  -0.911963
H    7.045863  -2.844756   0.166712
H    6.010822  -1.759959  -2.848365
H    3.865529  -0.186119   2.055701
H    8.095417   1.782050   1.284352
H    5.277646   3.691731  -3.510166
H    8.415310   4.627372  -2.469872
H    3.405608   5.256236   0.551743
H    8.870242   6.476602   2.036558
H    6.204254   6.655729   4.057714
H    6.449201   8.708954   1.421717

