%chk=mol_6012.chk
# wB97XD/Def2SVP opt freq pop=full gfinput

C 4 H 6 N 2 O 1

1 2
O    0.94213963  -0.15359993  -0.19491993
C    2.14898920   0.00184000  -0.05813998
C    2.80712891   1.32146955   0.21322991
C    4.26928854   1.24154949  -0.17813994
N    4.84167814   0.03812999   0.41598985
N    4.31973839  -1.17121947   0.09592997
C    3.03863883  -1.20786953  -0.10944996
H    2.30373931   2.10074925  -0.36735988
H    2.69745898   1.54381943   1.28013957
H    4.80050850   2.12675905   0.18558992
H    4.38291836   1.20805955  -1.26789951
H    5.85917759   0.02476999   0.30075988
H    2.53006911  -2.15337920  -0.35325986

