%chk=mol_6532.chk
# wB97XD/Def2SVP opt pop=full gfinput

C 4 H 4 N 2 S 1

1 2
C    5.552091  -2.295318   0.732174
C    4.508905  -0.045996   0.219284
C    5.809850   2.309132   0.167241
N    4.753209   4.515841  -0.341851
C    6.576965   6.385290  -0.223158
N    8.957019   5.806977   0.335653
S    9.013748   2.685225   0.764904
H    4.385412  -3.985281   0.722329
H    7.535944  -2.564226   1.170251
H    2.499201   0.041839  -0.199555
H    6.086884   8.339059  -0.583736

