%chk=mol_3604.chk
# wB97XD/Def2SVP opt pop=full gfinput

C 5 H 6 O 2

1 2
O    1.986518  -0.120546  -0.432709
C    4.688052  -0.001077  -0.071772
C    6.223548  -1.323753  -2.070724
O    4.768195  -2.512315  -4.043409
C    6.138964   1.523705  -1.992282
C    8.339022   2.878072  -1.172783
C   10.183129   4.016292  -0.496526
H    1.141054   1.149199   0.597683
H    5.396774  -0.097793   1.850741
H    7.949303  -2.260528  -1.482774
H    2.971273  -2.354240  -3.643997
H    5.052636   2.440392  -3.471748
H   11.823071   5.023932   0.091482

