%chk=mol_3085.chk
# wB97XD/Def2SVP opt freq pop=full gfinput

C 6 H 12 O 1

1 2
C    1.07195961  -0.85032970  -0.69706970
C    1.97303915  -0.36565986   0.43066984
C    2.60252905   0.97422963   0.13020995
O    1.75003934   2.01204920  -0.20583992
C    0.95791960   2.43822908   0.90060961
C    3.93367863   1.14880955   0.08269997
C    4.63070822   2.42530918  -0.26228991
H    0.65790975  -1.83385932  -0.45225981
H    1.62829947  -0.94144964  -1.63646936
H    0.23243991  -0.16640994  -0.86239970
H    2.74891901  -1.12192965   0.60033977
H    1.39934945  -0.30598989   1.36161947
H    0.40944985   3.33337879   0.59445977
H    1.58718932   2.69871902   1.75800931
H    0.22522992   1.67570937   1.17992961
H    4.58699846   0.30888990   0.30621988
H    3.93963838   3.24714875  -0.47051984
H    5.25793791   2.27709913  -1.14688957
H    5.27634811   2.72941899   0.56768978

