%chk=mol_5577.chk
# wB97XD/Def2SVP opt freq pop=full gfinput

C 5 H 11 N 1 O 1

1 2
N    0.97320962  -0.08110997   0.11184996
C    2.43265915  -0.04365999  -0.09497996
C    2.81504893  -0.01715999  -1.56884944
O    2.07215929   1.00987959  -2.22423935
C    3.03497887   1.04803956   0.83078969
C    4.10261822   0.00868000   1.23893952
C    3.10287881  -1.09443951   0.82610971
H    0.68226975   0.00065000   1.08719969
H    0.53824979  -0.94046962  -0.22741993
H    2.57041907  -0.96776962  -2.05334926
H    3.88098860   0.17719993  -1.71609938
H    1.22065949   1.04983962  -1.74296939
H    2.40974927   1.36734951   1.67419934
H    3.42525864   1.94103932   0.33352989
H    5.00745821   0.03847998   0.62105978
H    4.39276838   0.01545999   2.29270911
H    3.54843855  -1.95889926   0.32478988
H    2.49576926  -1.45488942   1.66599941

