%chk=mol_6040.chk
# wB97XD/Def2SVP opt freq pop=full gfinput

C 5 H 9 N 1 O 1

1 2
O    0.99108964   0.03187999   0.05942998
C    2.40287924   0.01341000  -0.00192000
C    3.01869893   1.10836959   0.87012964
N    4.36999846   0.62808979   1.21103954
C    4.19448853  -0.81923968   1.41963947
C    2.98746896  -1.22045958   0.61842978
C    2.51247907  -2.47324920   0.54938984
H    0.67630970  -0.71677977  -0.47181982
H    2.73578882   0.11600996  -1.04145968
H    2.43222904   1.27232957   1.78372931
H    3.06024885   2.06682920   0.34188986
H    4.97245789   0.75516975   0.39832985
H    5.09289837  -1.35568941   1.09641957
H    4.02871847  -1.01318967   2.48506904
H    1.62021947  -2.72141886  -0.01430999
H    3.00653887  -3.28726864   1.07207954

