%chk=mol_5426.chk
# wB97XD/Def2SVP opt pop=full gfinput

C 5 H 10 N 2

1 2
C    1.866993   0.264732  -0.313959
C    4.651561   0.016252   0.021713
C    6.169332  -1.581757  -1.770201
C    6.442095   1.262299  -1.826553
C    8.786339   2.451353  -0.885356
N   10.834669   2.096273  -2.166155
N   12.859643   3.279563  -1.148519
H    1.197406   2.008269   0.574647
H    0.897960  -1.328194   0.581941
H    1.322563   0.309008  -2.309623
H    5.172577  -0.038777   2.003507
H    5.224601  -2.472858  -3.354906
H    7.722800  -2.682750  -1.010248
H    5.623787   2.223735  -3.442476
H    8.679890   3.596168   0.858975
H   14.470238   2.485519  -1.867919
H   12.932870   5.112295  -1.761395

