%chk=mol_3412.chk
# wB97XD/Def2SVP opt pop=full gfinput

C 6 H 12 O 1

1 2
C    2.730957  -1.000270  -0.210629
O    5.306653  -0.277865  -0.445503
C    5.658879   2.340558   0.089422
C    8.461362   2.953226  -0.175499
C    8.986271   5.739439   0.362544
C   11.741681   6.350235   0.071469
C   13.191347   7.285480   1.921965
H    2.574620  -3.010787  -0.660705
H    1.554753   0.066575  -1.535648
H    2.070422  -0.704036   1.726359
H    5.015900   2.746320   2.016243
H    4.549856   3.471351  -1.245235
H    9.092965   2.449520  -2.086806
H    9.551867   1.746731   1.113086
H    8.329969   6.215252   2.270090
H    7.912151   6.921576  -0.956919
H   12.580587   6.015849  -1.775813
H   12.445680   7.659892   3.796781
H   15.174747   7.696401   1.593171

