%chk=mol_0348.chk
# wB97XD/Def2SVP opt pop=full gfinput

C 5 H 7 N 1

1 2
C    1.693006   0.119525  -0.015193
C    4.532149   0.023225  -0.009524
C    5.675830  -2.585845  -0.015666
C    5.931888   2.150489   0.000000
C    8.588843   2.150489   0.000000
N   10.763937   2.150489   0.000000
H    0.976006   2.060709  -0.013625
H    0.942028  -0.831498   1.662260
H    0.948737  -0.826472  -1.697976
H    4.210726  -4.046263   0.041177
H    6.884537  -2.864560   1.640679
H    6.789295  -2.893039  -1.732728
H    5.024347   3.988721   0.004762

