%chk=mol_0234.chk
# wB97XD/Def2SVP opt pop=full gfinput

C 5 H 11 N 1

1 2
C    1.390460   2.407606  -0.379816
C   -1.378045   2.340482   0.422240
C   -2.663248  -0.088439  -0.463531
N   -1.324093  -2.343941   0.421957
C    1.296711  -2.352766  -0.468709
C    2.739007  -0.012756   0.416552
H    1.506187   2.614190  -2.439542
H    2.333018   4.053047   0.450265
H   -2.370850   3.983618  -0.353719
H   -1.500273   2.479018   2.487673
H   -4.604866  -0.139821   0.254168
H   -2.796530  -0.118731  -2.531572
H   -1.326512  -2.351764   2.349874
H    2.238305  -4.052404   0.245230
H    1.333542  -2.480644  -2.536844
H    2.926581  -0.051306   2.481116
H    4.658081  -0.034865  -0.364679

