%chk=mol_2037.chk
# wB97XD/Def2SVP opt freq pop=full gfinput

C 5 H 4 N 2

1 2
N    0.84302968   0.01303000  -0.07898997
C    2.00236940   0.00541000  -0.06036998
C    3.53577876  -0.01208999  -0.02681999
C    4.73601818  -0.02430999  -0.00190000
C    6.16654778  -0.03125999   0.02545999
C    6.91562748  -0.77665973  -1.04977965
N    6.87006712   0.67927974  -1.03908956
H    6.62706709   0.01918999   1.00740957
H    6.35909748  -1.26061952  -1.84319925
H    7.86253691  -1.23723948  -0.79809970
H    7.74436665   1.07395959  -0.68970972

