%chk=mol_1529.chk
# wB97XD/Def2SVP opt freq pop=full gfinput

C 6 H 11 N 1

1 2
C    1.16905951  -0.59349978  -0.14271995
C    2.68055892  -0.45109981  -0.23464991
N    3.07425880   0.89566970   0.16778994
C    4.52282858   1.06474960   0.09909996
C    4.88202810   2.40988922   0.56635976
C    5.17336798   3.51031876   0.94918966
C    5.51890802   4.85518789   1.41068947
H    0.86584967  -1.59912944  -0.45129982
H    0.66303974   0.12623996  -0.79516965
H    0.81643969  -0.43498981   0.88209969
H    2.99346876  -0.64586973  -1.26671958
H    3.15088868  -1.20095956   0.41189983
H    2.76892877   1.07614958   1.12328959
H    4.87096834   0.93279964  -0.93101966
H    5.02798796   0.31858990   0.72498971
H    4.62132835   5.47080755   1.52242947
H    6.18482733   5.35188818   0.69873971
H    6.02626753   4.81583786   2.37923908

