%chk=mol_3642.chk
# wB97XD/Def2SVP opt freq pop=full gfinput

C 6 H 8 O 1

1 2
O    1.71812940  -0.24345991   1.24168956
C    2.41986918  -0.01437999   0.02761999
C    2.96850896   1.36899960   0.02446999
C    4.25150824   1.75846934  -0.09480996
C    4.33626842   3.25660872  -0.06431998
C    2.89649892   3.64648843   0.08400998
C    2.13208914   2.54634905   0.13446994
H    1.40779948  -1.16290963   1.21381962
H    1.72856927  -0.15441993  -0.80974966
H    3.22020888  -0.75716972  -0.05447998
H    5.10399818   1.10376966  -0.19575994
H    4.75867844   3.64746857  -0.99442959
H    4.93015814   3.60152864   0.78691971
H    2.53983903   4.66235781   0.15429993
H    1.05987966   2.51449895   0.25855991

