%chk=mol_2184.chk
# wB97XD/Def2SVP opt freq pop=full gfinput

C 5 H 8 O 2

1 2
C   -1.48332942   0.76457965   0.25590989
C   -1.34007943  -0.69513977  -0.16173995
C    0.01969999  -1.21062946   0.18283993
O    1.01525962  -0.93842965  -0.82023966
C    1.13083959  -0.22467992   0.41500986
C    0.84157968   1.24164963   0.35619986
O   -0.40973985   1.53930938  -0.28003988
H   -2.42085910   1.17109954  -0.13793994
H   -1.50658941   0.87255967   1.34677947
H   -1.49604952  -0.79085976  -1.24339950
H   -2.11017919  -1.29733944   0.33473986
H    0.03462999  -2.18205905   0.65307975
H    1.95482922  -0.47871980   1.06573963
H    0.81999969   1.65855932   1.36950946
H    1.63047945   1.75882936  -0.19798993

