%chk=mol_4637.chk
# wB97XD/Def2SVP opt freq pop=full gfinput

C 4 H 5 N 1 O 2

1 2
C    0.51277977   1.20813954  -0.06909998
C    1.26124954   0.09781997  -0.05954998
C    2.73802876   0.18358994  -0.21621992
O    3.32492876   1.24959958  -0.34567985
N    3.34560871  -1.04474962  -0.19917992
C    4.69418812  -1.21464956  -0.32533988
O    5.21935797  -2.32159901  -0.30975986
H   -0.56491977   1.15621960   0.04500998
H    0.95551962   2.19391918  -0.19078992
H    0.80020970  -0.87414968   0.06314997
H    2.81635904  -1.89586926  -0.09277996
H    5.26789808  -0.28052989  -0.44170985

