%chk=mol_3507.chk
# wB97XD/Def2SVP opt pop=full gfinput

C 5 H 8 O 2

1 2
O    1.856335  -0.035224   0.045939
C    4.582283   0.030689  -0.017253
C    5.887290   1.972099  -1.848417
C    5.029903   0.082052  -3.967140
C    6.019817  -1.796600  -1.892674
O    8.703436  -1.294500  -1.594797
C    8.726472   1.425761  -1.546495
H    1.373132   1.407695   1.076577
H    5.328045   0.020636   1.914160
H    5.209994   3.912262  -1.910097
H    6.111166   0.137912  -5.728421
H    3.012280   0.018217  -4.425984
H    5.506227  -3.786520  -1.989315
H    9.847967   2.147523  -3.125418
H    9.477789   2.091814   0.260007

