%chk=mol_0321.chk
# wB97XD/Def2SVP opt pop=full gfinput

C 5 H 7 N 1

1 2
C   10.268867  -3.634567  -0.004554
C    8.732103  -1.992414  -0.002494
C    6.867567   0.000000   0.000000
C    8.368256   2.392771   0.208153
C    9.313950   3.735535  -2.121974
N    7.226502   4.771181  -0.647363
H   11.641866  -5.108043  -0.008825
H    5.590793  -0.171134   1.619061
H    5.720428  -0.045353  -1.722674
H    9.461160   2.514318   1.937820
H    8.824813   2.982593  -3.962794
H   11.101253   4.727358  -2.021818
H    7.825072   6.248039   0.444464

