%chk=mol_2751.chk
# wB97XD/Def2SVP opt freq pop=full gfinput

C 6 H 12 O 1

1 2
C    0.66667974   0.51956981  -0.62637973
C    2.14906931   0.64622974  -0.76693976
C    2.94470882   1.20728958   0.15428993
C    4.43512821   1.33471942   0.00619000
C    4.90843821   2.78793907   0.01284999
C    4.39612818   3.59160876  -1.17680955
O    4.95339775   4.90070820  -1.14300954
H    0.16985995   1.02735960  -1.45884943
H    0.30070987   0.95820969   0.30728990
H    0.37849987  -0.53580981  -0.64530975
H    2.57720900   0.25047991  -1.68648946
H    2.51377892   1.59351933   1.07706952
H    4.78173780   0.84097964  -0.90993965
H    4.90649796   0.80511975   0.84288967
H    6.00587749   2.80762887   0.00922000
H    4.61017847   3.28341866   0.94588965
H    3.30601859   3.68566847  -1.16861951
H    4.69457817   3.12421894  -2.12012911
H    4.63756847   5.32902765  -0.32905987

