%chk=mol_6520.chk
# wB97XD/Def2SVP opt pop=full gfinput

C 5 H 12 N 2

1 2
C    1.837702  -0.037303   0.104011
C    4.703755  -0.084301   0.059696
C    6.053719   1.959684   1.683954
C    7.983054  -0.068673   2.522954
N   10.160358  -0.015382   0.797710
C    5.994438  -2.097199   1.766384
N    7.073982  -4.103106   0.190938
H    1.068546  -1.685088  -0.884581
H    1.123574   1.660181  -0.840418
H    1.100331  -0.050720   2.038504
H    5.379748  -0.056786  -1.904787
H    4.905540   2.667783   3.260042
H    6.782378   3.593352   0.645871
H    8.501670  -0.033505   4.522417
H    9.729331   0.319231  -1.044282
H   11.112893  -1.692628   0.831971
H    4.851286  -2.770584   3.356588
H    8.046680  -3.461638  -1.337926
H    5.746676  -5.314647  -0.503423

