%chk=mol_6304.chk
# wB97XD/Def2SVP opt pop=full gfinput

C 4 H 3 N 1 O 2

1 2
O    1.628207   2.324684  -0.010016
C    3.818456   1.576485  -0.006482
N    5.830504   3.184415  -0.003609
C    8.289132   2.388085  -0.001380
O    8.989370   0.186610  -0.000208
C   10.145732   4.393576  -0.000189
C   11.687351   6.059747   0.000775
H    4.321766  -0.445484  -0.005537
H    5.426008   5.046627  -0.004687
H   13.075903   7.519220   0.001625

