%chk=mol_2777.chk
# wB97XD/Def2SVP opt freq pop=full gfinput

C 6 H 12 O 1

1 2
C    2.46976924  -0.79820973   1.41783953
C    2.45517921  -0.03181999   0.11465996
C    1.88567936  -0.59562975  -0.96709961
C    3.11415887   1.34906948   0.12967995
C    3.18577886   2.05126929  -1.23528957
C    2.43016911   2.29020929   1.12851954
O    4.46562862   1.17241967   0.56539977
H    3.48994875  -0.89508963   1.80204928
H    2.07239914  -1.81284940   1.30219948
H    1.85607922  -0.29489988   2.17083907
H    1.43387949  -1.58299947  -0.91803968
H    1.83892930  -0.10404997  -1.93281925
H    3.72965860   1.44300938  -1.96774924
H    3.74267864   2.99299908  -1.15777957
H    2.19051933   2.27734923  -1.63272941
H    2.51830912   1.92353928   2.15723920
H    1.36883938   2.42566895   0.89445966
H    2.91108894   3.27585888   1.12620950
H    4.85487843   0.48774984  -0.00538000

