%chk=mol_4960.chk
# wB97XD/Def2SVP opt freq pop=full gfinput

C 4 H 8 N 2 O 1

1 2
C    1.04417968   0.10304996  -0.26092991
N    2.45999908  -0.06204998   0.05594998
C    3.18562865  -0.84536964  -0.93610966
C    3.34574866   0.65627974  -0.86701965
C    4.54409838   1.23117948  -0.23032992
N    5.60878801   1.34692955  -0.95332962
O    6.62331772   1.91660917  -0.17401993
H    0.66417974   1.00906968   0.22220992
H    0.47879982  -0.74648976   0.13572995
H    0.82628971   0.17871994  -1.33331954
H    2.64236903  -1.26684952  -1.77281940
H    3.99136853  -1.46410954  -0.55854982
H    2.89630890   1.25529957  -1.65045941
H    4.48770857   1.54792941   0.82578969
H    7.37482738   1.94359934  -0.79539967

