%chk=mol_0540.chk
# wB97XD/Def2SVP opt freq pop=full gfinput

C 4 H 10 N 2

1 2
N    2.56607890  -1.25597954  -0.21108992
C    1.99601924   0.03970999   0.15819994
C    3.10176897   1.08742964   0.23214991
N    4.32026863   0.71509975   0.98625964
C    3.30462885   1.98689926  -0.96503967
C    2.68577886   2.53630900   0.28705990
H    1.81224930  -1.93808925  -0.27317992
H    3.16938901  -1.57039940   0.54405981
H    1.50382948  -0.04189998   1.13389957
H    1.23389947   0.32169986  -0.57636976
H    4.07258844   0.34039989   1.89925933
H    4.78806829  -0.03817999   0.48067981
H    2.67071891   1.84477937  -1.83215940
H    4.31415844   2.29656935  -1.20911956
H    3.27960873   3.21974897   0.88373965
H    1.62938941   2.77874899   0.26440990

