%chk=mol_3970.chk
# wB97XD/Def2SVP opt pop=full gfinput

C 5 H 9 N 1 O 1

1 2
C    1.729591  -0.629090  -0.217942
C    4.399320   0.259573  -0.270987
C    6.282867  -0.921941  -2.004527
N    5.275303   1.545380  -2.476996
C    6.712534   3.731321  -2.451768
C    8.380331   4.244816  -0.191902
O    6.574471   5.286584  -4.180509
H    0.480595   0.903497   0.390644
H    1.528959  -2.191780   1.121912
H    1.084419  -1.285543  -2.071934
H    5.019283   0.975307   1.539938
H    5.671541  -2.306978  -3.378963
H    8.251300  -1.011722  -1.471568
H    7.244870   5.074425   1.321391
H    9.855753   5.588411  -0.734952
H    9.316142   2.539112   0.491593

