%chk=mol_4226.chk
# wB97XD/Def2SVP opt pop=full gfinput

C 5 H 5 N 1 O 1

1 2
C    5.263303  -2.062561   0.777055
C    4.150576   0.156432   0.289846
C    5.552885   2.445929   0.223838
C    4.702999   4.876608  -0.246666
C    6.846478   6.428187  -0.087116
N    8.918203   5.104264   0.444596
O    8.121079   2.623393   0.639823
H    4.163029  -3.791660   0.819858
H    7.277127  -2.226362   1.143757
H    2.132329   0.229356  -0.065460
H    2.783189   5.435211  -0.650066
H    6.997996   8.449286  -0.331420

