%chk=mol_4225.chk
# wB97XD/Def2SVP opt freq pop=full gfinput

C 5 H 7 N 1 O 1

1 2
C    0.96784961  -0.18340993  -0.01231000
C    2.46782899   0.05896998   0.02213999
C    2.78613877   1.50501943   0.00487000
C    3.04655886   2.44027901   0.97687966
C    3.26781869   3.62601876   0.25552991
N    3.15471888   3.44206858  -1.06147969
O    2.85041904   2.09907913  -1.21888959
H    0.75636971  -1.25727952   0.00286000
H    0.51847982   0.23883991  -0.91786969
H    0.47240981   0.27283990   0.85176969
H    2.93840885  -0.43504986  -0.83560967
H    2.88935900  -0.39978984   0.92382967
H    3.07151890   2.28794909   2.04490924
H    3.50556850   4.61309862   0.62539977

