%chk=mol_6940.chk
# wB97XD/Def2SVP opt freq pop=full gfinput

C 5 H 10 N 2

1 2
C    0.47416985   1.20728958   0.21364991
C    1.74375939   0.80497968  -0.51937979
C    2.96505880   1.34196949   0.15851994
C    4.15040827   1.77474940  -0.64422977
N    3.28976893   2.76922894   0.01736999
C    3.80112839   3.39510870   1.12547958
N    3.56756854   4.61629868   1.46273947
H   -0.40142986   0.76412970  -0.27000991
H    0.35063988   2.29440904   0.21400991
H    0.49837983   0.87221968   1.25545955
H    1.68515933   1.15291953  -1.55832934
H    1.81224930  -0.28857988  -0.55238980
H    3.12414885   0.91922969   1.14350951
H    4.08002853   1.82362926  -1.72229934
H    5.14382839   1.67053938  -0.22913992
H    4.46091843   2.77222919   1.75483942
H    2.93855882   5.00741816   0.75161970

