%chk=mol_6483.chk
# wB97XD/Def2SVP opt freq pop=full gfinput

C 4 H 6 N 2 S 1

1 2
C    0.93912965   0.03739999  -0.00516000
C    2.42734909   0.02853999  -0.00114000
N    3.06693888   1.20107949   0.00149000
S    4.70081854   0.92365968   0.00496000
C    4.59344816  -0.78217971   0.00319000
C    3.26575875  -1.13739955  -0.00012000
N    2.84018898  -2.41717911  -0.00228000
H    0.53864980   1.05660963   0.00246000
H    0.55314982  -0.48233983   0.87764972
H    0.55833983  -0.46735981  -0.89885968
H    5.47499800  -1.40605938   0.00452000
H    3.47623849  -3.20882869   0.00533000
H    1.85804927  -2.67287898   0.00211000

