%chk=mol_0165.chk
# wB97XD/Def2SVP opt freq pop=full gfinput

C 4 H 7 N 1

1 2
C    0.99999964   0.00000000   0.00000000
C    2.44399905   0.00000000   0.00000000
C    3.63415861   0.00000000   0.00000000
C    5.07815790   0.00000000   0.00000000
N    5.57975769   1.36641943   0.01824999
H    0.60598981   1.02087963   0.01167000
H    0.60591978  -0.52050984   0.87825966
H    0.60592973  -0.50029981  -0.88992965
H    5.45999765  -0.51403981  -0.88851970
H    5.46211815  -0.53333980   0.87548965
H    5.21417809   1.85961938  -0.79449970
H    6.59166765   1.35003948  -0.08466997

