%chk=mol_0897.chk
# wB97XD/Def2SVP opt pop=full gfinput

C 5 H 8 O 1

1 2
O    1.556794  -0.055086  -0.011811
C    4.247783   0.055407  -0.000397
C    5.208463   2.751290   0.028384
C    3.654296   4.764718   0.012416
C    7.930425   3.190897   0.074947
C    9.747472   1.428784   0.120451
H    1.108929  -1.834357   0.013795
H    4.921225  -0.924870  -1.694385
H    4.905521  -0.957184   1.679721
H    1.615319   4.529447  -0.022601
H    4.345917   6.695129   0.034147
H    8.533701   5.160804   0.073756
H    9.365653  -0.583491   0.129201
H   11.720705   1.993359   0.153654

