%chk=mol_6374.chk
# wB97XD/Def2SVP opt pop=full gfinput

C 4 H 2 N 2 O 1

1 2
O    1.639961   0.246949   0.000000
N    4.276998   0.018803  -0.000000
C    5.255555   2.242141   0.000000
C    7.959489   2.161695   0.000000
C   10.226801   2.075297  -0.000000
C   13.119915   1.948837  -0.000000
N   15.310788   1.869336  -0.000000
H    1.088728  -1.514143  -0.000000
H    4.228508   4.051270   0.000000

