%chk=mol_5536.chk
# wB97XD/Def2SVP opt pop=full gfinput

C 5 H 5 N 1 O 1

1 2
N    1.955848   0.137100  -0.344119
C    4.519110  -0.071847  -0.191562
C    5.919057  -2.173809  -0.093957
C    8.544623  -1.291099   0.061907
O   10.404643  -2.633900   0.200103
C    8.552617   1.482415   0.038437
C    6.119481   2.127756  -0.114064
H    1.004503  -1.454069   0.161496
H    1.241475   1.719462   0.478535
H    5.359415  -4.121871  -0.122643
H   10.215066   2.643727   0.115311
H    5.421587   4.043485  -0.199120

