%chk=mol_1570.chk
# wB97XD/Def2SVP opt pop=full gfinput

C 5 H 10 N 2

1 2
C    1.797753   0.042500   0.666790
C    4.323372   0.849148  -0.479121
N    4.349167   0.220512  -3.145430
C    4.890044  -2.122087  -4.025381
N    4.421071  -2.918134  -6.266804
C    4.920658   3.629994  -0.320762
C    3.461392   5.491091   0.588612
H    1.702568   0.521470   2.677591
H    1.540542  -2.004527   0.496903
H    0.198818   0.939402  -0.295818
H    5.844772  -0.163839   0.502270
H    3.271796   1.350795  -4.250901
H    5.809094  -3.377772  -2.637075
H    3.594996  -1.509929  -7.297234
H    6.790315   4.144680  -1.021529
H    1.581833   5.161976   1.337907
H    4.138557   7.429307   0.603862

