%chk=mol_3546.chk
# wB97XD/Def2SVP opt freq pop=full gfinput

C 6 H 8 O 1

1 2
O    1.37250948   0.35107988   0.69429976
C    2.41977906   0.01088000   0.17221993
C    2.86619902  -1.39806950  -0.13016996
C    4.08520842  -1.24229944  -1.05307961
C    4.55420828   0.17740993  -0.91548967
C    3.82776856   1.29968953  -1.60753942
C    3.49830866   0.96055961  -0.18090993
H    2.06854916  -1.96865928  -0.61192971
H    3.15259886  -1.87828934   0.81074971
H    4.87105799  -1.95268929  -0.77610970
H    3.80561852  -1.44808948  -2.09274912
H    5.59030771   0.29347989  -0.63259977
H    4.37319851   2.21867919  -1.79302931
H    3.09977889   1.06288958  -2.37546921
H    3.80744863   1.64750946   0.59621978

