%chk=mol_0589.chk
# wB97XD/Def2SVP opt freq pop=full gfinput

C 5 H 8 O 1

1 2
C    0.43500981   1.30578959   0.13051996
C   -1.06203961   1.05623960  -0.06468998
C   -1.39163947  -0.40049985   0.07539997
C   -0.41939986  -1.32418954   0.04657998
C    1.02657962  -0.97131962  -0.15654995
O    1.19860959   0.36871988  -0.63174981
H    0.69174975   2.31255913  -0.21462993
H    0.72094971   1.23677945   1.18754947
H   -1.36635947   1.37806952  -1.06769967
H   -1.62974930   1.64571941   0.66314977
H   -2.43090916  -0.68986976   0.19465993
H   -0.66335976  -2.37578917   0.16267994
H    1.58386946  -1.09729958   0.77818972
H    1.46632946  -1.63842940  -0.90455961

