%chk=mol_4958.chk
# wB97XD/Def2SVP opt freq pop=full gfinput

C 5 H 9 N 1 O 1

1 2
C    1.07240963   0.09026996  -0.18454993
N    2.51882887   0.07742997   0.01479999
C    3.22922873  -0.72742969  -0.97103965
C    3.25263882   0.78478974  -1.04008961
C    4.48208857   1.50248945  -0.61778975
C    4.37708855   2.36909914   0.60467976
O    5.51060772   1.39538944  -1.27702951
H    0.65042973   0.99841958   0.25824991
H    0.62425977  -0.76767969   0.32721987
H    0.76029968   0.05408998  -1.23554945
H    2.66035891  -1.26862943  -1.71714926
H    4.11866856  -1.23799944  -0.61926973
H    2.69766903   1.25490952  -1.84337926
H    3.45799851   2.95995903   0.56756979
H    5.22695780   3.05678892   0.63607973
H    4.38905859   1.74660933   1.50256944

