%chk=mol_1821.chk
# wB97XD/Def2SVP opt pop=full gfinput

C 5 H 10 N 2

1 2
C    1.434605   1.079393  -1.510666
N    3.794702   1.179699  -0.083318
C    5.278100   2.957969  -0.829646
N    7.580164   3.398446   0.227334
C    9.410251   5.180042  -0.308932
C    8.931413   7.045088  -2.410383
C   11.589728   5.286755   0.988157
H    0.403249  -0.636176  -0.991313
H    1.773054   1.009114  -3.552024
H    0.231473   2.702516  -1.064161
H    4.781838   4.258026  -2.384286
H    7.997094   2.185771   1.653567
H    8.646612   6.055023  -4.205245
H   10.513945   8.354026  -2.671166
H    7.250426   8.180341  -2.000181
H   12.005260   3.979159   2.512202
H   13.026884   6.688138   0.564045

