%chk=mol_5223.chk
# wB97XD/Def2SVP opt pop=full gfinput

C 4 H 8 N 2 O 1

1 2
C    5.972461   0.252959   2.982876
N    4.678225   0.755853   0.600668
N    5.282824   3.079573  -0.495902
C    4.477196   5.543342   0.496696
C    6.892115   6.642255  -0.708534
C    7.708854   3.863715  -0.991313
O    9.682711   2.767636  -1.341649
H    5.371736  -1.589732   3.705772
H    5.517226   1.670159   4.418577
H    8.024458   0.171209   2.741123
H    2.769469   0.664333   0.854402
H    4.400360   5.641248   2.560088
H    2.703027   6.209262  -0.324031
H    6.631011   7.615332  -2.512240
H    8.077578   7.760520   0.556732

