%chk=mol_5314.chk
# wB97XD/Def2SVP opt pop=full gfinput

C 5 H 11 N 1 O 1

1 2
C    2.981270  -0.253601   0.551214
O    5.634748   0.113762   0.731456
C    6.336082   2.614738  -0.025209
C    9.192176   2.895627   0.217035
N   10.342906   1.839573   2.540189
C   10.769700   2.753142  -2.157992
C   10.389223   5.248053  -0.863983
H    2.545556  -2.174867   1.173255
H    2.352350  -0.034676  -1.406410
H    1.979091   1.078920   1.774698
H    5.413442   3.990119   1.219459
H    5.715779   2.951204  -1.973743
H    9.822097  -0.021959   2.636886
H    9.522954   2.639343   4.088763
H    9.828446   2.437029  -3.948545
H   12.624013   1.887761  -2.038334
H   11.990369   6.063394   0.121887
H    9.191155   6.630690  -1.783920

