%chk=mol_0577.chk
# wB97XD/Def2SVP opt freq pop=full gfinput

C 4 H 6 N 2

1 2
N    0.94979966   0.02436999  -0.23468992
N    2.34863901   0.00059000  -0.13361995
C    3.14597893   1.10453963  -0.07048997
C    4.45143843   0.67482972   0.04867999
C    4.42778826  -0.74183971   0.04895998
C    3.10861897  -1.12836969  -0.07003997
H    0.55952984   0.83697969   0.23693991
H    0.53283978  -0.78102970   0.22595991
H    2.73169899   2.10134935  -0.12116995
H    5.32313776   1.31118953   0.11904995
H    5.27867794  -1.40792942   0.11963996
H    2.66183901  -2.11106920  -0.12023996

