%chk=mol_2224.chk
# wB97XD/Def2SVP opt pop=full gfinput

C 5 H 8 O 2

1 2
C   -2.239250  -1.359280  -0.981599
O   -2.291217   1.387815  -0.870654
C   -0.084282   2.038353   0.622532
C    2.262229   1.363853  -0.927799
O    2.312741  -1.384205  -0.822258
C    0.070921  -2.037786   0.621720
C   -0.028856  -0.002646   2.620162
H   -2.061975  -1.937347  -2.958139
H   -4.005123  -2.063694  -0.170491
H   -0.182718   3.995297   1.267137
H    4.009337   2.065867  -0.075457
H    2.129608   1.945473  -2.906002
H    0.155543  -3.995391   1.261959
H   -1.743726  -0.091878   3.771345
H    1.659312   0.085567   3.810141

