%chk=mol_5905.chk
# wB97XD/Def2SVP opt pop=full gfinput

C 4 H 8 N 2 O 1

1 2
N    1.304138   2.789500   0.185004
N    3.602007   1.734353   0.555976
C    5.450537   3.287160   0.144243
C    8.101993   2.477941   0.459903
C    9.990094   4.109077   0.025870
C   12.717007   3.452738   0.302564
O   13.915339   3.847445  -2.059972
H   -0.044352   1.403991   0.240260
H    0.850358   3.972167   1.646481
H    5.141170   5.263511  -0.460696
H    8.405464   0.537570   1.042997
H    9.594895   6.040359  -0.553104
H   13.015829   1.489690   0.882067
H   13.607219   4.687334   1.701207
H   13.087828   2.741293  -3.272703

