%chk=mol_0363.chk
# wB97XD/Def2SVP opt pop=full gfinput

C 5 H 13 N 1

1 2
C    6.582351  -1.962481  -0.387318
C    5.582742  -0.053687   1.520530
C    6.122996   2.716500   0.794498
C    4.786374   4.488931   2.659544
C    8.958096   3.349861   0.572436
N   10.373425   2.909649   2.898235
H    6.006797  -3.872143   0.156847
H    8.645176  -1.936780  -0.483505
H    5.830259  -1.582702  -2.277044
H    6.370324  -0.482485   3.387089
H    3.531501  -0.319477   1.675677
H    5.281463   3.057388  -1.071702
H    5.390406   4.150103   4.608456
H    2.736739   4.209970   2.581120
H    5.167267   6.468419   2.196995
H    9.178079   5.335868   0.025247
H    9.811836   2.231294  -0.943654
H    9.727327   4.077349   4.286334
H   12.219763   3.385218   2.619142

