%chk=mol_4147.chk
# wB97XD/Def2SVP opt freq pop=full gfinput

C 4 H 6 N 2 O 1

1 2
C    0.91976964  -0.05621998  -0.00558000
C    2.39182901   0.05612998  -0.00282000
C    3.24659872   1.12898958  -0.00356000
O    2.84754896   2.40027928  -0.00718000
N    4.55211830   0.75184971  -0.00026000
C    4.51609802  -0.56144983   0.00246000
N    3.23072886  -1.03065956   0.00098000
H    0.44541985   0.93005967   0.00431000
H    0.57375979  -0.60558981   0.87583965
H    0.57607979  -0.58699977  -0.89918965
H    3.66505861   2.92623901  -0.00680000
H    5.37365818  -1.22082949   0.00548000
H    2.95484877  -2.00283933   0.00245000

