%chk=mol_4917.chk
# wB97XD/Def2SVP opt freq pop=full gfinput

C 4 H 9 N 1 O 2

1 2
C    4.28903866   4.08367825  -2.18336916
C    3.11381865   3.67462850  -1.31470942
O    3.45290875   3.80397844   0.07329997
C    4.08830833   2.74056911   0.62293977
O    4.39139795   1.71201944   0.03856998
N    4.35538864   3.01420903   1.92914939
C    5.15290833   2.14171910   2.74508905
H    4.02005816   4.04632854  -3.24276876
H    5.14837837   3.42601871  -2.01845932
H    4.61424828   5.09970808  -1.93652928
H    2.77444887   2.65898919  -1.54906940
H    2.26907897   4.34598827  -1.50104940
H    4.14549875   3.95478868   2.23207927
H    4.90062857   1.09714961   2.54386902
H    4.96535778   2.37693906   3.79505873
H    6.20701742   2.31149912   2.51037908

