%chk=mol_0737.chk
# wB97XD/Def2SVP opt pop=full gfinput

C 6 H 2

1 2
C    1.552108   0.000000   0.000000
C    3.819854   0.000000   0.000000
C    6.714802   0.000000   0.000000
C    8.983115   0.000000   0.000000
C   11.878252   0.000000   0.000000
C   14.146074   0.000000   0.000000
H   -0.461207   0.000000   0.000000
H   16.158689   0.000000   0.000000

