%chk=mol_6079.chk
# wB97XD/Def2SVP opt pop=full gfinput

C 5 H 7 N 1 O 1

1 2
O    1.719802   0.025171   0.318494
C    4.029727   0.062928   0.188481
N    5.395584   2.236547   0.488797
C    7.987022   2.455000  -0.352793
C    9.546310   0.083450   0.184721
C    8.037497  -2.282090  -0.217923
C    5.502561  -2.279671  -0.255548
H    4.319423   3.811464   0.633984
H    8.826911   4.106110   0.567863
H    7.930387   2.825632  -2.390485
H   10.222983   0.101422   2.142836
H   11.216470   0.075457  -1.040086
H    9.058043  -4.046735  -0.452136
H    4.407692  -3.990176  -0.515952

