%chk=mol_3758.chk
# wB97XD/Def2SVP opt freq pop=full gfinput

C 5 H 10 O 2

1 2
O    0.90225965   0.15662995   0.05885998
C    2.31840897   0.06676997  -0.01471000
C    2.90050888   1.47255945   0.03610999
C    4.42435837   1.45328939  -0.04036999
C    5.00160837   2.86434889   0.00418000
C    6.50921726   2.87297893  -0.07611997
O    7.20916700   1.86838937  -0.14925995
H    0.55806977  -0.75245970   0.02494999
H    2.58780909  -0.43433985  -0.94988960
H    2.67395902  -0.53444982   0.82805967
H    2.57239914   1.96833932   0.95852965
H    2.48561907   2.06719923  -0.78729969
H    4.74137831   0.95426965  -0.96445966
H    4.82818794   0.86276966   0.79130971
H    4.71811819   3.36620879   0.93560964
H    4.62395811   3.45939875  -0.83411974
H    6.97070742   3.87588859  -0.06236998

