%chk=mol_0352.chk
# wB97XD/Def2SVP opt pop=full gfinput

C 5 H 13 N 1

1 2
C    1.850647  -0.206868   0.009449
C    4.741134  -0.012510  -0.035111
C    5.738531  -1.478465  -2.333339
C    5.661714   2.771321  -0.048642
C    4.685878   4.293892   2.208655
N    8.432034   2.869795  -0.041120
H    1.071909   0.540859   1.772110
H    1.243289  -2.180838  -0.127632
H    1.006978   0.832103  -1.568321
H    5.458285  -0.953745   1.671803
H    5.128414  -0.595188  -4.102785
H    5.040750  -3.427075  -2.319393
H    7.804437  -1.571458  -2.337024
H    5.003371   3.689501  -1.786018
H    5.168080   3.381892   4.004386
H    2.631519   4.521453   2.129438
H    5.493925   6.201495   2.225568
H    9.106288   2.072085   1.577732
H    9.018718   4.703585  -0.018595

