%chk=mol_1934.chk
# wB97XD/Def2SVP opt pop=full gfinput

C 5 H 6 N 2

1 2
N    1.967129   0.099834   0.556354
C    4.572079   0.159058   0.178409
C    5.850989   2.445816   0.059526
C    8.458376   2.427542  -0.288523
C    9.702591   0.127368  -0.493785
C    8.275300  -2.058082  -0.336201
N    5.740799  -2.085710  -0.003779
H    1.051500   1.129376  -0.772104
H    1.454069  -1.751719   0.496337
H    4.839362   4.217982   0.258061
H    9.503206   4.191129  -0.382594
H   11.732969   0.037265  -0.757780
H    9.154079  -3.907406  -0.473603

