%chk=mol_2865.chk
# wB97XD/Def2SVP opt pop=full gfinput

C 7 H 12

1 2
C    1.315268   0.616278   0.247308
C    3.964627  -0.426643   0.333026
C    4.104315  -3.172567   1.047834
C    5.957267   1.068357  -0.201256
C    8.718006   0.401321  -0.208475
C   10.145902   1.973517   1.675488
C   12.020850   3.569957   1.081320
H    1.275546   2.630196  -0.228373
H    0.396672   0.390191   2.087977
H    0.196059  -0.387564  -1.174578
H    2.931589  -4.299807  -0.233192
H    3.400732  -3.439906   2.975676
H    6.010917  -3.955140   0.967200
H    5.586257   3.030440  -0.712162
H    9.452920   0.706039  -2.122824
H    9.054680  -1.588126   0.232720
H    9.602568   1.764570   3.647587
H   12.636202   3.835898  -0.856953
H   12.979980   4.647214   2.538677

