%chk=mol_2972.chk
# wB97XD/Def2SVP opt freq pop=full gfinput

C 5 H 8 O 2

1 2
C    0.95570964  -0.26468992  -0.07876997
C    2.42754912  -0.02903999  -0.20973992
C    3.09442878   1.10961950   0.05907998
C    2.53967905   2.40914917   0.56022978
O    2.79796886   3.44662881  -0.37889987
C    4.56912804   1.08843958  -0.14755994
O    5.26360798   2.08428931   0.02681999
H    0.77933973  -1.12198961   0.57905978
H    0.53106982  -0.49714980  -1.06064963
H    0.40876988   0.58589977   0.33216989
H    2.97348905  -0.89931965  -0.57263982
H    2.99361897   2.68225908   1.51935947
H    1.45965946   2.37717891   0.71512973
H    3.77257872   3.53350878  -0.41581985
H    5.00451803   0.13075995  -0.47902983

