%chk=mol_2881.chk
# wB97XD/Def2SVP opt freq pop=full gfinput

C 6 H 14 O 1

1 2
C    0.95042968   1.80657935   0.94611967
C    2.46326923   1.96213925   0.96132964
C    3.11162877   1.22589958  -0.21501993
C    4.64257812   1.36070943  -0.21565992
C    5.23429823   0.54399979  -1.36307943
O    4.96000814   2.74904895  -0.35919985
C    6.32516766   3.05595899  -0.11304995
H    0.50566977   2.33960915   1.79238927
H    0.66290975   0.75286973   1.01919961
H    0.52349979   2.21629906   0.02493999
H    2.85591912   1.56961942   1.90652931
H    2.70968914   3.02936888   0.92526966
H    2.70835900   1.63713932  -1.14916956
H    2.83485889   0.16520993  -0.17485994
H    5.03233814   0.99212962   0.74152970
H    4.94036818   0.96132964  -2.33229899
H    4.90965843  -0.50028980  -1.31514955
H    6.32820749   0.55345982  -1.33113956
H    6.42261744   4.14299870  -0.04851998
H    6.95204735   2.70905900  -0.93858963
H    6.66375780   2.62061906   0.83170968

