%chk=mol_0298.chk
# wB97XD/Def2SVP opt freq pop=full gfinput

C 4 H 10 N 2

1 2
C    0.94565964   0.05243998  -0.17326993
C    2.43747902   0.00993000   0.03769999
N    2.87531900  -0.00509000   1.45410943
C    3.28117871  -0.74630970  -0.95976967
C    3.29883885   0.75365973  -0.97164965
N    4.49648809   1.46915936  -0.50895983
H    0.68120974   0.06566998  -1.23654950
H    0.52055979   0.94955963   0.28935990
H    0.47160980  -0.82615966   0.27725989
H    3.79900861  -0.42959985   1.53464949
H    2.26282907  -0.61064976   2.00142932
H    2.78639889  -1.24703956  -1.78487933
H    4.17242861  -1.26320958  -0.62418973
H    2.80035901   1.22517955  -1.81641936
H    4.71042824   1.15967953   0.43949983
H    4.26663876   2.45542932  -0.38763985

