%chk=mol_4117.chk
# wB97XD/Def2SVP opt pop=full gfinput

C 4 H 5 N 1 O 2

1 2
C    1.975784  -0.050399  -0.009014
C    4.755307   0.175348  -0.012416
N    6.162983   2.233373  -0.015042
C    8.588428   1.310393  -0.018047
C    8.538123  -1.281159  -0.017197
O   10.215311  -3.129443  -0.018841
O    6.085164  -2.043040  -0.013757
H    1.091846   1.818351   0.013644
H    1.336377  -1.089786   1.659406
H    1.329857  -1.052521  -1.697598
H   10.204918   2.554607  -0.020504
H   11.871202  -2.339878  -0.021146

