%chk=mol_5015.chk
# wB97XD/Def2SVP opt pop=full gfinput

C 5 H 8 N 2

1 2
C    3.933068  -0.347351  -0.031804
C    1.443241  -1.617133   0.407727
C   -0.809105  -2.528227  -1.006166
N   -3.045804  -0.979596  -0.262351
C   -2.607255   1.238319   0.667149
N   -0.299824   2.423064   1.041957
C    1.646613   1.171989  -0.430461
H    5.017147  -0.935622  -1.667986
H    5.095325   0.085831   1.599162
H    1.163202  -2.077508   2.397836
H   -1.191737  -4.498096  -0.499700
H   -0.553085  -2.448102  -3.059920
H   -4.203658   2.437047   1.266287
H   -0.337448   4.335939   1.159215
H    1.415329   1.664716  -2.422610

