%chk=mol_5308.chk
# wB97XD/Def2SVP opt freq pop=full gfinput

C 5 H 11 N 1 O 1

1 2
C    1.31496954   0.20945993  -0.27806991
O    2.71794915   0.26132989  -0.06020998
C    3.21417880   1.59423935  -0.15153994
C    4.68646812   1.56352937   0.10335996
C    5.66537762   1.53122938  -1.04217958
C    5.52868795   2.77157903  -0.20538992
N    6.61146784   3.14518881   0.69973975
H    0.98357964  -0.82436973  -0.14699994
H    1.07580960   0.52685976  -1.29760945
H    0.78793967   0.83873969   0.44622982
H    2.72899890   2.21670914   0.60856974
H    2.98837876   2.00543928  -1.14256954
H    4.92377806   0.98396963   0.98821962
H    5.28152800   1.56122935  -2.05598927
H    6.55348730   0.92011964  -0.93315965
H    5.03532839   3.61912870  -0.67789972
H    7.09932756   2.32269907   1.05432963
H    6.24642754   3.62574863   1.52162945

