%chk=mol_3582.chk
# wB97XD/Def2SVP opt freq pop=full gfinput

C 5 H 8 O 2

1 2
O    1.13840950   0.06282998   0.51028979
C    2.30135918   0.00518000   0.11071996
C    3.02667880  -1.31351948  -0.01504999
C    3.99568844  -1.27273953  -1.18824959
C    4.86002827  -0.01952999  -1.13877952
O    4.03509855   1.14240956  -1.20943952
C    3.15106893   1.24993956  -0.10126996
H    2.29765916  -2.11727929  -0.15767995
H    3.56380868  -1.49176943   0.92277968
H    4.62473869  -2.16888905  -1.18600953
H    3.41843891  -1.26989949  -2.12045908
H    5.47388840   0.01576999  -0.23125991
H    5.53512812   0.00049000  -2.00023913
H    3.72438836   1.44682944   0.81080967
H    2.48791909   2.09996915  -0.28697991

