%chk=mol_2576.chk
# wB97XD/Def2SVP opt freq pop=full gfinput

C 7 H 8

1 2
C    0.94239968  -0.03688999   0.00912000
C    2.43518925  -0.00238000   0.01696000
C    3.13901877   1.13798952   0.00000000
C    4.54501867   1.13798952   0.00000000
C    5.73517752   1.13798952   0.00000000
C    7.14117718   1.13798952   0.00000000
C    7.84432697   2.27529931   0.00003000
H    0.59360981  -1.07217968  -0.04134998
H    0.54165977   0.49365979  -0.86008966
H    0.53799975   0.40901986   0.92467964
H    2.94917893  -0.96022964   0.03379998
H    2.63154912   2.09834909  -0.01655999
H    7.65477705   0.18120992  -0.00003000
H    7.35973740   3.24701881   0.00007000
H    8.92905617   2.25482917   0.00003000

