%chk=mol_4581.chk
# wB97XD/Def2SVP opt pop=full gfinput

C 4 H 8 N 2 O 1

1 2
C    0.078159   1.154415  -0.250294
C    2.659808   0.255094   0.438870
C    4.781650   1.505224  -0.124779
O    7.153747   0.565312   0.553935
C    9.098521   2.255388   0.723576
N    8.918865   4.662692   0.339263
N   11.142883   5.893187   0.669908
H   -0.867498  -0.253582  -1.432960
H    0.125157   2.943154  -1.288529
H   -1.050915   1.431297   1.460154
H    2.784455  -1.518792   1.466617
H    4.831501   3.268829  -1.159460
H   10.846706   1.248240   1.252189
H   11.200634   7.403267  -0.542144
H   11.147570   6.744414   2.410837

