%chk=mol_2604.chk
# wB97XD/Def2SVP opt pop=full gfinput

C 6 H 6 O 1

1 2
C    1.889726   0.000000   0.000000
C    4.138803   0.000000   0.000000
C    6.867567   0.000000   0.000000
C    7.972036  -2.353748  -1.299943
C    8.885530  -1.294009  -3.728146
C    8.730346   1.206137  -3.602498
O    7.775033   2.189153  -1.385453
H   -0.123928   0.016441  -0.010072
H    7.579805   0.142674   1.939936
H    6.591535  -3.871539  -1.565260
H    9.575885  -3.107711  -0.228317
H    9.608898  -2.370397  -5.301154
H    9.284621   2.590758  -4.986496

