%chk=mol_0552.chk
# wB97XD/Def2SVP opt pop=full gfinput

C 5 H 9 N 1

1 2
N    1.552977   0.173685   0.185647
C    4.308424   0.357045   0.291793
C    5.355163   3.029930   0.287692
C    3.888225   5.109914   0.361618
C    8.094170   3.372972   0.207019
C    9.848289   1.546250   0.176708
H    1.057056  -1.683822   0.248367
H    0.973114   0.818459  -1.533758
H    5.065581  -0.683023  -1.332673
H    4.943089  -0.608171   2.010499
H    1.843220   4.977709   0.461320
H    4.668644   7.006462   0.364528
H    8.768122   5.318785   0.181565
H    9.395473  -0.449490   0.211309
H   11.840665   2.038996   0.125818

