%chk=mol_4128.chk
# wB97XD/Def2SVP opt pop=full gfinput

C 4 H 6 N 2 O 1

1 2
C    1.742932  -0.272782   0.000831
C    4.517882   0.005896   0.009184
C    5.982797   2.159844   0.104521
N    5.516791   4.643133   0.202276
O    8.452971   1.447266   0.079425
C    8.349377  -1.118963  -0.025700
N    6.065114  -2.089943  -0.080691
H    0.791946   1.562804   0.020541
H    1.124387  -1.335451   1.663790
H    1.129659  -1.295143  -1.689226
H    6.967779   5.851178  -0.133320
H    3.789827   5.331390  -0.257570
H   10.138645  -2.103397  -0.056371

