%chk=mol_0397.chk
# wB97XD/Def2SVP opt pop=full gfinput

C 5 H 13 N 1

1 2
C    1.949234  -0.224670   0.815984
C    4.780516   0.049435   1.263811
C    5.809018   2.711814   0.697781
N    4.668682   4.612198   2.355128
C    8.702945   2.741199   0.999722
C    9.903790   5.263265   0.298274
H    1.382656  -2.198866   1.063009
H    1.442919   0.351017  -1.104432
H    0.853608   0.908221   2.153362
H    5.756427  -1.321315   0.051419
H    5.208142  -0.485697   3.221756
H    5.347547   3.205410  -1.261071
H    4.935984   4.115786   4.197271
H    2.763951   4.668379   2.081892
H    9.526487   1.274942  -0.214389
H    9.229120   2.261813   2.948086
H    9.406547   5.805862  -1.635955
H   11.963799   5.123633   0.413812
H    9.303821   6.772476   1.576296

