%chk=mol_0932.chk
# wB97XD/Def2SVP opt freq pop=full gfinput

C 4 H 7 N 1 O 1

1 2
C    0.42649984   1.44649947   0.20215993
C    1.33819950   0.28523991  -0.12879996
O    0.90085965  -0.83455968   0.64078975
N   -0.33472988  -1.34316957   0.18984993
C   -1.22630954  -0.43774983  -0.06720997
C   -1.02529967   1.04989958   0.01182000
H    0.67506975   2.32437921  -0.40177983
H    0.57342982   1.72749937   1.25173962
H    2.37089920   0.51286983   0.15832993
H    1.33068943   0.03443999  -1.19665956
H   -2.22935915  -0.78063971  -0.37509984
H   -1.40631950   1.47149944  -0.92507964
H   -1.65371943   1.44628954   0.81530970

