%chk=mol_6373.chk
# wB97XD/Def2SVP opt freq pop=full gfinput

C 4 H 4 N 2 O 1

1 2
O    0.90809965   0.21962991   0.37810984
N    2.26951909  -0.09661996   0.29666990
C    2.94579887   0.99740964   0.14304996
C    4.42471838   1.06235969   0.01763999
C    5.15223789  -0.06495997   0.06084998
C    5.02731848   2.33820915  -0.14646994
N    5.51619816   3.38224864  -0.28039989
H    0.49312982  -0.65665972   0.49095979
H    2.42871928   1.97463918   0.09646996
H    4.68730783  -1.03847957   0.18650992
H    6.23468781  -0.04655998  -0.02830999

