%chk=mol_5002.chk
# wB97XD/Def2SVP opt freq pop=full gfinput

C 4 H 8 N 2 O 1

1 2
C    1.13186955  -0.01914999   0.16218995
N    2.56634903  -0.02955999  -0.00051000
N    3.27662873   1.17620945  -0.14881995
C    4.50497866   0.79216969  -0.85639971
C    4.70558834  -0.68948972  -0.57976979
C    3.30399871  -1.15753949  -0.33342987
O    2.92598891  -2.31583905  -0.37357986
H    0.75299972  -1.03836966   0.27719989
H    0.67731977   0.43152982  -0.72500974
H    0.87639964   0.56825978   1.04845965
H    3.52313876   1.49607944   0.79202974
H    4.36133862   0.95938963  -1.93049932
H    5.36345768   1.39106941  -0.53712982
H    5.14516830  -1.20620954  -1.43606949
H    5.29959774  -0.86005968   0.32321990

