%chk=mol_0714.chk
# wB97XD/Def2SVP opt freq pop=full gfinput

C 5 H 8 O 1

1 2
C    1.00033963  -0.05415998   0.00380000
C    2.51999903   0.00000000   0.00000000
C    3.00201893   1.36116946   0.00000000
C    3.39929867   2.48306894   0.00000000
C    3.88131857   3.84423852   0.00000000
O    2.84466887   4.71698809  -0.42464983
H    0.65698975  -1.09298968   0.00344000
H    0.58488977   0.44237983  -0.87959963
H    0.58944982   0.44020984   0.89054972
H    2.89507890  -0.53265983  -0.88110965
H    2.89957881  -0.53429979   0.87817967
H    4.72628832   3.95712852  -0.68639976
H    4.20450830   4.15116835   0.99917960
H    3.23729873   5.59930801  -0.50291979

