%chk=mol_0504.chk
# wB97XD/Def2SVP opt freq pop=full gfinput

C 6 H 8

1 2
C    0.99250960   0.05481998   0.00195000
C    2.47503901  -0.02598999   0.00446000
C    3.25131893  -1.12278962   0.00706000
C    4.69786787  -0.72304976   0.00868000
C    4.60399818   0.77373970   0.00617000
C    3.31755877   1.14974952   0.00410000
H    0.53904980  -0.94191968  -0.00094000
H    0.63677979   0.58755976  -0.88580966
H    0.63359976   0.58402979   0.89051968
H    2.90150905  -2.14524913   0.00780000
H    5.21043825  -1.08959961  -0.88533968
H    5.20783806  -1.08688951   0.90503967
H    5.45343781   1.43998945   0.00656000
H    2.95008874   2.16461921   0.00184000

