%chk=mol_5484.chk
# wB97XD/Def2SVP opt pop=full gfinput

C 4 H 6 N 2 O 1

1 2
N    1.845110  -0.015855   1.286110
C    4.468163  -0.053649   0.378059
C    5.181743   1.417673  -1.946985
O    7.812015   2.106686  -2.268238
N    9.172296  -0.167392  -2.826256
C    7.657038  -2.077433  -2.698586
C    5.060479  -1.402026  -2.056135
H    1.507945   1.597971   2.289176
H    1.532284  -1.465766   2.518854
H    5.883776  -0.130164   1.868580
H    3.757890   2.505739  -2.929794
H    8.215263  -4.049532  -3.038226
H    3.551721  -2.248245  -3.140914

