%chk=mol_2165.chk
# wB97XD/Def2SVP opt pop=full gfinput

C 7 H 12

1 2
C    1.854332   0.034865  -0.017782
C    4.721311  -0.040006   0.055539
C    5.815103  -2.142534   1.731915
C    7.399412  -0.527498   3.535319
C    8.677812   1.504883   1.821091
C    5.845755   2.253820   1.423587
C    5.637355   1.700735   4.322238
H    1.110989  -1.650449  -0.960831
H    1.198767   1.699544  -1.058549
H    1.018808   0.120659   1.872681
H    5.455961  -0.178296  -1.876517
H    6.993461  -3.449185   0.643584
H    4.367346  -3.225649   2.737797
H    8.528013  -1.453067   4.986571
H    9.705029   0.813735   0.164822
H    9.859401   2.900881   2.793677
H    5.431092   4.150878   0.737995
H    6.474920   3.120845   5.576336
H    3.777941   1.194515   5.065449

