%chk=mol_5426.chk
# wB97XD/Def2SVP opt freq pop=full gfinput

C 5 H 10 N 2

1 2
C    0.98796964   0.14008994  -0.16613993
C    2.46149898   0.00860000   0.01149000
C    3.26466870  -0.83702964  -0.93674964
C    3.40900874   0.66797978  -0.96656966
C    4.64952850   1.29719961  -0.46850982
N    5.73345804   1.10929954  -1.14627957
N    6.80502748   1.73546934  -0.60776973
H    0.63363975   1.06272960   0.30408990
H    0.47517982  -0.70284975   0.30794990
H    0.69986969   0.16351995  -1.22219956
H    2.73720908  -0.02051999   1.06020963
H    2.76473880  -1.30857944  -1.77533925
H    4.08672857  -1.41964948  -0.53459978
H    2.97597909   1.17674959  -1.82167935
H    4.59319830   1.90300930   0.45454982
H    7.65731716   1.31527948  -0.98845965
H    6.84377766   2.70530915  -0.93208969

