%chk=mol_6951.chk
# wB97XD/Def2SVP opt freq pop=full gfinput

C 5 H 6 N 2

1 2
C    0.99999964   0.00000000   0.00000000
C    2.19015908   0.00000000   0.00000000
C    3.63415861   0.00000000   0.00000000
C    4.23628855  -1.19088948  -0.78223974
N    4.66127825  -0.66304970  -2.12108922
C    4.55652809   0.62144977  -1.97310925
N    4.13516855   1.11554956  -0.77794969
H   -0.06601997  -0.00411000  -0.00645000
H    4.02623844   0.02990999   1.02155960
H    3.53110886  -2.01901937  -0.91304964
H    5.12934780  -1.57347941  -0.27357990
H    4.76457834   1.36068952  -2.76223898
H    3.56516862   1.95194924  -0.79780972

