%chk=mol_2661.chk
# wB97XD/Def2SVP opt pop=full gfinput

C 6 H 8 O 1

1 2
C    5.870151  -2.365068  -0.615729
C    4.552634   0.020844   0.290545
C    6.409951   2.055587   0.910659
O    7.255188   3.499622  -1.213563
C    5.718992   4.803665   0.608246
C    7.081956   6.675911   2.004092
C    8.220403   8.248749   3.174173
H    4.482808  -3.838714  -1.040011
H    7.165407  -3.090534   0.825810
H    6.971615  -1.997932  -2.328521
H    3.442968  -0.411337   1.984439
H    3.219186   0.655527  -1.162805
H    7.779265   1.520152   2.332130
H    3.806022   5.273168   0.049303
H    9.242802   9.646183   4.203337

