%chk=mol_1914.chk
# wB97XD/Def2SVP opt pop=full gfinput

C 6 H 9 N 1

1 2
N    2.047499  -0.363999   0.206717
C    4.661350   0.373807  -0.138290
C    5.270957   2.762704   1.279893
C    7.128274   2.325478   2.958971
C    8.019110  -0.305493   2.966341
C    6.274155  -2.401672   3.748631
C    6.382399  -1.618456   1.002424
H    1.766667  -2.070460  -0.631320
H    0.916196   0.887888  -0.711784
H    5.091281   0.616372  -2.148978
H    4.341287   4.552709   0.989120
H    7.892347   3.740864   4.221535
H   10.038206  -0.624970   2.923388
H    7.108299  -4.200370   4.260312
H    4.592923  -1.937555   4.826210
H    7.267263  -2.851975  -0.361731

