%chk=mol_4516.chk
# wB97XD/Def2SVP opt freq pop=full gfinput

C 4 H 10 N 2 O 1

1 2
C    0.03805999  -0.98348963   0.28345990
C    1.51980948  -1.35971940   0.22175992
C    1.66912937  -2.80986881  -0.24149992
N    2.19944930  -0.42455983  -0.69480973
N    3.59530878  -0.62730980  -0.70170969
C    4.40819836   0.10791996   0.13812995
O    4.02492857   0.91668963   0.97436965
H   -0.09445997   0.04433998   0.64107972
H   -0.49974981  -1.64413941   0.97236961
H   -0.43831983  -1.06417954  -0.69955975
H    1.93914926  -1.25991952   1.23083961
H    1.28256953  -2.94823885  -1.25780952
H    1.11718965  -3.48408866   0.42257982
H    2.71645904  -3.12756872  -0.23031992
H    2.03886938   0.52865982  -0.33937988
H    4.00279856  -1.20255959  -1.43451953
H    5.47298765  -0.11435996  -0.03183999

