%chk=mol_3711.chk
# wB97XD/Def2SVP opt freq pop=full gfinput

C 6 H 4 O 1

1 2
O    1.22340953  -0.34207988   0.71519971
C    2.22403908  -0.06582997   0.05676998
C    2.96822882   1.26101959   0.07753997
C    2.62407899   2.08023930   1.25419950
C    2.34340906   2.75490904   2.20943928
C    4.42213821   1.01504958  -0.02806999
C    5.60442781   0.82199967  -0.11765996
H    2.58885884  -0.78935969  -0.69439971
H    2.64778900   1.79342926  -0.82713968
H    2.08880925   3.34499884   3.05882883
H    6.65588760   0.65848976  -0.18961993

