%chk=mol_2447.chk
# wB97XD/Def2SVP opt freq pop=full gfinput

C 5 H 8 O 2

1 2
C    1.00964963  -0.01544999   0.10677996
C    2.49848914  -0.03901999   0.02516999
C    3.21040893  -0.66219974  -1.14613950
O    2.37938929  -1.16316950  -2.20359898
C    3.21803880   0.83624971  -0.97411966
C    4.47896814   1.50908947  -0.59914982
O    5.38038778   1.65107942  -1.41302943
H    0.68773979   0.73993975   0.83071971
H    0.63541979  -0.98792964   0.44164982
H    0.54065979   0.22015992  -0.85406965
H    2.94225907  -0.19239992   1.00272965
H    4.12842846  -1.20406950  -0.93601966
H    2.87082911  -1.19924951  -3.04368877
H    2.61705899   1.40405941  -1.67683935
H    4.55496836   1.88271928   0.43554986

