%chk=mol_4399.chk
# wB97XD/Def2SVP opt freq pop=full gfinput

C 5 H 11 N 1 O 1

1 2
C    0.69747972   0.66556978   0.43425983
C    2.17492914   0.64496976   0.64890975
C    3.05548882   1.29277945  -0.13261995
C    4.54008818   1.26506948   0.06467998
O    5.12489796   0.78870970  -1.14832950
C    5.11488771   2.66588902   0.37373984
N    6.58787775   2.62497902   0.40719986
H    0.19582993   1.03900957   1.33277953
H    0.33477986  -0.34880987   0.23549992
H    0.40829983   1.30352950  -0.40678984
H    2.52980924   0.05096998   1.48762941
H    2.69920897   1.86666930  -0.98495960
H    4.82163811   0.56570977   0.86087972
H    6.03811741   1.13924956  -1.12719953
H    4.72965813   3.04346871   1.32680953
H    4.82585812   3.37054873  -0.41498986
H    6.88686752   2.06786919   1.20922959
H    6.93573761   3.56849861   0.58320975

