%chk=mol_3777.chk
# wB97XD/Def2SVP opt pop=full gfinput

C 5 H 6 O 2

1 2
O    4.110419   3.427604   3.054005
C    3.594183   2.351386   1.081056
C    5.590887   1.585197  -0.809426
O    4.970868   0.491404  -2.747586
C    8.246103   2.203988  -0.147191
C   10.303845   0.270382  -0.576348
C   10.188610   2.589643  -2.206274
H    1.656628   1.847377   0.510453
H    8.471585   3.391151   1.516335
H    9.803710  -1.522212  -1.436494
H   11.804627   0.142788   0.812507
H   11.612594   4.034925  -1.924856
H    9.611110   2.353692  -4.159080

