%chk=mol_3828.chk
# wB97XD/Def2SVP opt freq pop=full gfinput

C 5 H 9 N 1 O 1

1 2
C    1.09663963   0.51952982  -1.00780964
O    0.63602978   1.39927948   0.02798999
C    0.58281982  -0.00829000   0.30027989
C    1.44740951  -0.44086984   1.44252956
C    0.87145972  -0.48386982   2.87499881
C    1.60649943  -1.82721937   2.98201871
N    1.53499949  -1.92533922   1.50562942
H    0.47193983   0.40980986  -1.88458931
H    2.16097927   0.48609981  -1.20005965
H   -0.39201987  -0.47929981   0.32830986
H    2.43990898   0.03207999   1.41250956
H   -0.22031991  -0.56419975   2.92932892
H    1.21004951   0.30269989   3.55304885
H    2.62978911  -1.75111938   3.36937881
H    1.07683957  -2.61686897   3.52132869
H    2.36625910  -2.31881905   1.06727958

