%chk=mol_2260.chk
# wB97XD/Def2SVP opt pop=full gfinput

C 6 H 8 O 1

1 2
C    1.967167   0.041442   1.210861
C    4.548325  -0.040535   0.090556
C    5.083874   1.335810  -2.341786
O    7.698064   2.147050  -2.850217
C    8.985572  -0.097737  -3.326674
C    7.606469  -2.185846  -3.018441
C    5.024517  -1.555434  -2.277725
H    1.718479   1.783013   2.298134
H    1.696162  -1.560933   2.489922
H    0.488078  -0.032031  -0.234345
H    5.993040  -0.010186   1.543415
H    3.568483   2.322662  -3.300142
H   10.938283   0.113648  -3.848938
H    8.282462  -4.095017  -3.277541
H    3.490116  -2.497802  -3.244584

