%chk=mol_6914.chk
# wB97XD/Def2SVP opt pop=full gfinput

C 6 H 9 N 1

1 2
C    4.532376  -0.997511  -2.659468
C    4.742116   0.048339   0.008617
C    5.591756   2.735851   0.006746
C    4.215903   4.953652  -0.011130
C    5.953318   6.985959  -0.003439
C    8.341383   5.961935   0.021222
N    8.108380   3.382988   0.029404
H    3.896219  -2.965169  -2.609863
H    6.357360  -0.937247  -3.634359
H    3.175968   0.087778  -3.785197
H    6.063319  -1.111726   1.105131
H    2.900862  -0.094241   0.947962
H    2.174905   5.091829  -0.030084
H    5.506700   8.982605  -0.014645
H   10.186248   6.843416   0.034072
H    9.565265   2.146389   0.045429

