%chk=mol_1080.chk
# wB97XD/Def2SVP opt pop=full gfinput

C 4 H 7 N 1 O 1

1 2
N    1.862514   0.056975  -0.250464
C    4.606132   0.057656  -0.005688
C    5.690854  -2.317163   1.298979
O    6.950526  -1.576636   3.605163
C    6.701687   1.011419   3.656280
C    5.442903   2.058460   1.754441
H    1.304875  -1.447870  -1.308220
H    1.307464   1.632326  -1.202905
H    5.461932   0.295950  -1.875194
H    7.079500  -3.252105   0.079633
H    4.229604  -3.710742   1.768387
H    7.549324   1.923042   5.267574
H    5.089070   4.049778   1.536366

