%chk=mol_1208.chk
# wB97XD/Def2SVP opt freq pop=full gfinput

C 5 H 10 N 2

1 2
C    1.11023962   0.11904995  -0.93265969
C    2.30779910   0.08781997  -0.04015998
C    2.71494889  -0.99559963   0.63726979
C    3.13251877   1.33375943   0.07821997
C    2.39630890   2.61977911   0.39812985
N    4.42499876   1.25877953  -0.09973996
N    5.11427832   2.41798902  -0.00491000
H    1.36456954   0.56373978  -1.90046918
H    0.30164987   0.70278972  -0.48310980
H    0.72556973  -0.88814962  -1.12552953
H    2.17602921  -1.93517923   0.58181983
H    3.60813880  -0.97244960   1.25686955
H    1.35822952   2.42667913   0.68065971
H    2.40758920   3.27327871  -0.47917980
H    2.87766910   3.12854886   1.23886955
H    6.11542797   2.20822906   0.01128000
H    4.98209810   2.98131895  -0.84804964

