%chk=mol_0304.chk
# wB97XD/Def2SVP opt pop=full gfinput

C 6 H 14

1 2
C    1.831107  -0.213067   0.019332
C    4.722596  -0.014267  -0.024831
C    5.717669  -1.534193  -2.283262
C    5.638508   2.775687  -0.079633
C    4.644040   4.295631   2.179081
C    8.529770   2.974183  -0.124306
H    1.045567   0.557337   1.769899
H    1.223938  -2.189815  -0.088250
H    0.986607   0.800923  -1.575748
H    5.438103  -0.916706   1.700602
H    5.206271  -0.633795  -4.075950
H    4.934736  -3.451925  -2.286909
H    7.775165  -1.730989  -2.216970
H    4.922907   3.678087  -1.805010
H    5.155570   3.394817   3.971335
H    2.586525   4.491860   2.113016
H    5.426405   6.212891   2.182785
H    9.375101   1.960251   1.470604
H    9.137260   4.951612  -0.016630
H    9.315557   2.204271  -1.875478

