%chk=mol_4067.chk
# wB97XD/Def2SVP opt freq pop=full gfinput

C 4 H 5 N 1 O 2

1 2
C    1.09350955  -0.07829997   0.17657994
C    2.40842915   0.00999000  -0.02334999
C    3.29215860   1.21015954   0.03318999
O    4.60383844   0.69836974  -0.28251988
C    4.50634813  -0.65071976  -0.49114981
O    5.43874788  -1.38200951  -0.77455968
N    3.20637894  -1.03749955  -0.33291987
H    0.56575978  -1.02360964   0.10248996
H    0.50518978   0.80111969   0.42020983
H    3.32477880   1.65537941   1.03149962
H    3.02233887   1.96141922  -0.71405977
H    2.92435884  -1.99818933  -0.44812980

