%chk=mol_6414.chk
# wB97XD/Def2SVP opt freq pop=full gfinput

C 6 H 11 N 1

1 2
C    0.98655963   0.11632995   0.22713991
C    2.48077917  -0.06199998  -0.00426000
C    2.84405899  -1.46034956  -0.49987981
C    2.95161891  -1.32364953  -2.01547933
N    3.42384887   0.04963998  -2.27339911
C    2.35509896   1.03049958  -2.41435909
C    3.02639890   0.83477968  -1.08070958
H    0.75322968   1.15928960   0.46681982
H    0.65173972  -0.50788981   1.06289959
H    0.39491984  -0.16507994  -0.65020978
H    2.99992871   0.13585995   0.94111967
H    2.12811923  -2.23045921  -0.19669993
H    3.82603860  -1.74017930  -0.09646996
H    3.66809869  -2.04866910  -2.41526914
H    1.98688924  -1.51979935  -2.49885893
H    2.60987926   1.92050922  -2.97926879
H    1.34729958   0.67536974  -2.58438921
H    3.74700880   1.56466949  -0.73597968

