%chk=mol_0407.chk
# wB97XD/Def2SVP opt freq pop=full gfinput

C 4 H 12 N 2

1 2
C    0.91253966  -0.09790996   0.04188998
C    2.44471908  -0.09369996   0.09196997
C    2.91843891  -0.78550971   1.37916946
N    2.97079897  -0.86840963  -1.04913962
C    2.97630882   1.37053955   0.01740999
N    4.42370796   1.43709946  -0.23457992
H    0.54044980   0.36523986  -0.87930965
H    0.49195981   0.45970982   0.88651967
H    0.51323980  -1.11788952   0.08504997
H    2.57927895  -0.23649991   2.26505923
H    4.01046848  -0.85665965   1.43194950
H    2.52140903  -1.80507934   1.45167947
H    3.97075844  -0.64145976  -1.10633957
H    2.59625912  -0.47338980  -1.91200924
H    2.74462914   1.90680933   0.94535965
H    2.47583890   1.90341926  -0.80012971
H    4.92121792   1.01716959   0.55016977
H    4.71053839   2.41528916  -0.25573990

