%chk=mol_0661.chk
# wB97XD/Def2SVP opt pop=full gfinput

C 5 H 8 O 1

1 2
C    2.006284   0.396861   1.611766
C    3.719945   0.617676  -0.236386
C    5.855883   2.431719  -0.081957
C    5.239681   5.159482  -0.850263
C    6.568594   5.872494   1.606588
O    6.611868   3.263349   2.427845
H    0.467613  -0.950268   1.462837
H    2.107404   1.530603   3.320608
H    3.587116  -0.553369  -1.915464
H    7.512814   1.672351  -1.074158
H    3.235003   5.664454  -0.898980
H    6.165288   5.820262  -2.574260
H    8.483453   6.623849   1.398681
H    5.474367   7.065346   2.889845

