%chk=mol_5856.chk
# wB97XD/Def2SVP opt freq pop=full gfinput

C 5 H 5 N 1 O 1

1 2
N    1.03525960   0.03967999   0.00000000
C    2.39198899  -0.03694998  -0.00000000
O    2.99700880  -1.09847963  -0.00000000
C    3.09949899   1.21762955   0.00000000
C    3.69457865   2.24833918   0.00000000
C    4.39757824   3.46596861   0.00000000
C    3.76653862   4.64476824   0.00000000
H    0.54631978   0.92251962   0.00000000
H    0.51161981  -0.82403970   0.00000000
H    5.48347759   3.43143868  -0.00000000
H    2.68363905   4.71738863   0.00000000
H    4.33102846   5.57178831   0.00000000

