%chk=mol_3269.chk
# wB97XD/Def2SVP opt freq pop=full gfinput

C 5 H 12 O 2

1 2
C    0.92545968   2.34105897   1.72135937
C    2.43601918   2.27839923   1.60801947
O    2.76563883   1.74949932   0.32610986
C    4.17234850   1.66410935   0.13414994
O    4.80085802   2.93951893   0.06982997
C    4.38986874   3.67603850  -1.07979965
C    5.13411808   4.99666834  -1.08949959
H    0.62341976   2.75131893   2.68888903
H    0.48884982   1.34357941   1.60792935
H    0.50563979   2.96520901   0.92573965
H    2.84173894   1.63050938   2.39308906
H    2.85356879   3.28468895   1.72070932
H    4.36404848   1.10984957  -0.79135972
H    4.62618828   1.09412956   0.95231962
H    3.31136894   3.86384845  -1.04006958
H    4.62354851   3.11101890  -1.98878920
H    4.92924833   5.56141806  -0.17427993
H    4.84192801   5.60246801  -1.95158923
H    6.21550798   4.82890844  -1.12535954

