%chk=mol_2437.chk
# wB97XD/Def2SVP opt freq pop=full gfinput

C 6 H 8 O 1

1 2
C    1.03805959  -0.00862000  -0.03632998
C    2.52840900  -0.00060000  -0.01269000
C    3.34007859  -0.74751967  -1.03713953
O    2.60588908  -1.44307947  -2.05946922
C    3.30534887   0.76366973  -1.05829954
C    4.47469807   1.48702943  -0.64495975
C    5.44880819   2.09520912  -0.30155990
H    0.64937973   0.75349969   0.64648980
H    0.66030979  -0.98228967   0.29114991
H    0.63430977   0.19864993  -1.03259969
H    2.90201902  -0.01844999   1.00627959
H    4.24605846  -1.23133957  -0.68117970
H    2.05860925  -0.84801972  -2.59839916
H    2.74009895   1.23413956  -1.85600936
H    6.31557751   2.63581896   0.00421000

