%chk=mol_2715.chk
# wB97XD/Def2SVP opt freq pop=full gfinput

C 6 H 12 O 1

1 2
C    0.85559964   0.05868998   0.02661999
C    2.37102914  -0.06737997  -0.02024999
C    3.04225874   1.30692947  -0.03752999
C    4.56596851   1.22648954  -0.14522995
C    5.19680834   0.60457975   1.06227970
C    5.80027771  -0.77534968   1.01387966
O    6.61133766   0.40460983   0.93483961
H    0.39260983  -0.93260968   0.04643998
H    0.47893980   0.59220982  -0.85174966
H    0.53508985   0.60126978   0.92183965
H    2.65777898  -0.63490975  -0.91338962
H    2.70392895  -0.64196980   0.85161972
H    2.76453900   1.86191928   0.86636966
H    2.66508889   1.88020933  -0.89287966
H    4.95991802   2.24487925  -0.25140992
H    4.84588814   0.68377972  -1.05681956
H    4.83882856   1.00228965   2.00188923
H    5.69402790  -1.36695945   0.11393996
H    5.84352779  -1.34927952   1.93015933

