%chk=mol_2137.chk
# wB97XD/Def2SVP opt pop=full gfinput

C 5 H 10 N 2

1 2
N    1.619439   3.271494  -1.306746
N    4.137574   3.529649  -1.649939
C    5.448383   2.214740  -0.055936
C    8.369163   2.228932  -0.103217
C    9.773115   4.209875  -1.752437
C   11.787640   4.346446   0.344157
C    9.728933   3.446955   2.194029
H    0.719249   4.762261  -2.150962
H    0.972982   1.732255  -2.284244
H    4.554599   1.026594   1.412344
H    9.076506   0.307666  -0.469805
H    8.751907   5.990262  -2.030341
H   10.446859   3.531520  -3.583771
H   13.338065   2.994517   0.101081
H   12.575485   6.218976   0.714808
H   10.363674   2.136052   3.658718
H    8.673975   4.991428   3.085035

