%chk=mol_6139.chk
# wB97XD/Def2SVP opt freq pop=full gfinput

C 4 H 4 N 2 O 1

1 2
O    0.90149969  -0.07925997   0.00653000
C    2.26971912  -0.03260999  -0.00050000
C    2.95385885   1.10642958  -0.00110000
C    2.47219920   2.47662902   0.00502000
N    3.45900869   3.32566881   0.00189000
N    4.70011854   2.56780887  -0.00671000
C    4.39278841   1.30432951  -0.00827000
H    0.61747974  -1.01229954   0.00485000
H    2.73671889  -1.00945961  -0.00554000
H    1.40148950   2.71723914   0.01140000
H    5.09626770   0.46230984  -0.01420000

