%chk=mol_1283.chk
# wB97XD/Def2SVP opt freq pop=full gfinput

C 6 H 15 N 1

1 2
C    2.97269893  -0.89543968  -1.15245962
C    2.54095912  -0.03027999   0.02540999
C    3.03908873   1.43743944  -0.01240000
C    2.45554900   2.17945933  -1.22807956
N    2.52523923   2.12202930   1.18769956
C    4.58287811   1.56844938  -0.04425998
C    5.33225822   0.89355969   1.10042965
H    2.59525919  -1.91522920  -1.02094960
H    4.06160831  -0.95658964  -1.23542953
H    2.57119894  -0.51811981  -2.09763932
H    2.87589884  -0.51834977   0.94937968
H    1.44307947  -0.04249999   0.06461997
H    2.84277892   1.77594936  -2.16934919
H    2.71542907   3.24578881  -1.20621955
H    1.36236954   2.10653925  -1.25761950
H    2.81124878   1.61812937   2.02556920
H    1.50552940   2.10259914   1.18572962
H    4.85658789   2.63287878  -0.04345998
H    4.96819830   1.16775954  -0.99020964
H    5.04171801   1.30353951   2.07193923
H    6.40864801   1.05729961   0.98409963
H    5.16447783  -0.18654993   1.11216962

