%chk=mol_3533.chk
# wB97XD/Def2SVP opt freq pop=full gfinput

C 6 H 6 O 1

1 2
O    1.10194957  -0.00103000   0.53828984
C    2.26947927  -0.01024000   0.21058992
C    3.31008887   1.08842969  -0.05680998
C    4.21006823  -0.01821999  -0.67858970
C    3.27931881  -1.12497962  -0.10405996
C    4.29757833   0.01148000  -2.12803912
C    4.36159849   0.03605999  -3.32589889
H    3.70409846   1.53365946   0.86185968
H    2.96528888   1.87745929  -0.72994971
H    5.20750809  -0.04184998  -0.22054991
H    2.91314912  -1.87467933  -0.81005967
H    3.66028857  -1.61974943   0.79452968
H    4.41280842   0.05799998  -4.39110851

