%chk=mol_6979.chk
# wB97XD/Def2SVP opt freq pop=full gfinput

C 5 H 6 N 2

1 2
C    1.99469936  -0.57330984  -1.23384953
C    2.11985922   0.33750987  -0.25858989
C    3.25617886   1.24154949  -0.06510998
N    3.58021879   2.17411923  -1.13949955
C    3.00564885   2.72599888   0.09325996
C    3.82876849   3.45906878   1.01619959
N    4.46728849   4.04961872   1.78442931
H    1.12142956  -1.21551955  -1.29123950
H    2.76587892  -0.70199978  -1.98769927
H    1.32087946   0.40110984   0.47924984
H    4.11099863   0.80584973   0.44446984
H    2.87580895   2.13015938  -1.87692928
H    1.98782921   3.08898878   0.00158000

