%chk=mol_5453.chk
# wB97XD/Def2SVP opt freq pop=full gfinput

C 4 H 9 N 1 O 2

1 2
C    6.14141798   0.35973987   0.37031984
O    5.87224770   1.61375940  -0.24667990
N    4.52071857   1.92689931  -0.04473998
C    4.28967857   3.10211897  -0.53515977
C    2.93289900   3.74913859  -0.43541983
C    1.80827940   2.74847889  -0.22850992
O    1.88842928   2.16125917   1.06519961
H    7.19722748   0.11986995   0.22053991
H    5.53137779  -0.42592984  -0.08592997
H    5.94147778   0.41676983   1.44492948
H    5.09381819   3.70626855  -0.99261963
H    2.76971889   4.30581856  -1.36441946
H    2.97876883   4.46823788   0.38954985
H    1.82891929   1.94983923  -0.97744960
H    0.84132969   3.25578880  -0.29820988
H    2.75473905   1.70465946   1.09709966

