%chk=mol_1447.chk
# wB97XD/Def2SVP opt pop=full gfinput

C 5 H 14 N 2

1 2
C    1.750208  -1.563219   0.416118
C    3.914379  -0.238672  -0.998682
C    5.041355  -1.996118  -3.074830
N    6.173886  -4.314680  -2.059764
N    3.266770   2.281901  -2.045043
C    1.229720   2.257013  -3.910278
C    2.721621   4.132774  -0.064081
H    0.997284  -0.385788   1.938443
H    2.413691  -3.313748   1.301435
H    0.193168  -2.061313  -0.852455
H    5.442883   0.067236   0.375810
H    6.502585  -0.973814  -4.130450
H    3.572546  -2.550752  -4.424435
H    7.639955  -3.841624  -0.904952
H    6.943686  -5.316480  -3.514097
H    1.699450   1.064993  -5.531663
H    0.937909   4.159722  -4.678339
H   -0.572096   1.616944  -3.116839
H    4.245497   4.191545   1.338058
H    0.940441   3.751617   0.917594
H    2.602285   6.034689  -0.875491

