%chk=mol_2064.chk
# wB97XD/Def2SVP opt pop=full gfinput

C 6 H 7 N 1

1 2
N    1.804273  -0.002116   0.016592
C    4.569188   0.011301   0.065744
C    5.626451   2.707637   0.000000
C    8.355216   2.707637   0.000000
C   10.604293   2.707637   0.000000
C   13.499864   2.705181  -0.000170
C   15.767630   2.703442   0.000265
H    1.181797  -1.825816   0.046128
H    1.182647   0.745421  -1.647104
H    5.277986  -1.078675  -1.547931
H    5.208558  -0.956126   1.782616
H    4.921338   3.768945   1.634727
H    4.929464   3.685797  -1.689434
H   17.781246   2.703386   0.001946

