%chk=mol_4713.chk
# wB97XD/Def2SVP opt freq pop=full gfinput

C 4 H 6 N 2 O 1

1 2
C    0.73550975   0.27821988  -0.14066994
C    2.03481913  -0.01773999  -0.00396000
N    2.62122893  -1.25326955   0.17205994
C    2.07562923  -2.49254918   0.23438992
N    2.71380901  -3.59512877   0.41172984
C    2.99082899   1.13690948  -0.04274998
O    4.19919825   0.96098965   0.08059996
H    0.37837988   1.29478955  -0.27388990
H   -0.02652999  -0.49373981  -0.12148996
H    3.63451862  -1.18223953   0.26308990
H    0.98016959  -2.52151895   0.11704996
H    3.71584868  -3.41266870   0.50496978
H    2.55037904   2.13765907  -0.18654993

