%chk=mol_4935.chk
# wB97XD/Def2SVP opt freq pop=full gfinput

C 4 H 10 N 2 O 1

1 2
C    4.84977818   1.66665936  -1.83054936
C    4.78957844   1.60424936  -0.31708989
O    5.87839794   2.37606907   0.20512992
N    5.78241777   2.32224894   1.60622942
C    6.81877756   1.49387944   2.19850922
C    5.45831776   3.53540874   2.16394925
N    4.96983814   4.56487846   1.56111944
H    4.04597855   1.07496965  -2.27837920
H    5.81175756   1.29012954  -2.19508910
H    4.76117802   2.70211911  -2.17729902
H    4.87965822   0.56390977   0.01441999
H    3.83595848   2.01514935   0.03301999
H    6.84508753   0.51095980   1.71741927
H    6.62552738   1.33819950   3.26496863
H    7.80097675   1.96383917   2.08446908
H    5.64126825   3.57888865   3.25071883
H    4.90558815   4.30606842   0.56811982

