%chk=mol_4604.chk
# wB97XD/Def2SVP opt freq pop=full gfinput

C 4 H 9 N 1 O 2

1 2
C    0.81031972  -0.23717991   0.17857993
C    2.28629923   0.05220998  -0.08398996
C    3.16218877  -0.63415974   0.96275967
O    2.64519906  -0.48492980  -1.36415946
C    2.56384921   1.57302940  -0.07976997
N    3.79114842   1.92533922  -0.57379979
O    1.78429937   2.42442894   0.33145988
H    0.17770994   0.25340989  -0.57041979
H    0.49747983   0.11607996   1.16690958
H    0.60315979  -1.31086946   0.10838996
H    2.97207904  -0.23969990   1.96677923
H    4.22747850  -0.49899980   0.74257976
H    2.98434877  -1.71566939   0.97235966
H    2.01481915  -0.11857995  -2.01029921
H    4.33256817   1.24902952  -1.09881961
H    4.00333834   2.90884876  -0.66639972

