%chk=mol_0398.chk
# wB97XD/Def2SVP opt pop=full gfinput

C 5 H 11 N 1

1 2
C    2.948105  -0.947679   1.655816
C    5.721278  -0.167845   1.638903
C    6.209848   2.387574   0.328737
N    4.886510   4.458299   1.596819
C    8.944509   3.156882   0.133698
C   10.982805   1.934588   1.011249
H    2.757677  -2.867546   2.404790
H    2.155781  -0.925059  -0.255019
H    1.814572   0.300769   2.853165
H    6.786952  -1.650525   0.655773
H    6.410064  -0.129597   3.594580
H    5.483191   2.267823  -1.609725
H    5.357978   4.444220   3.464038
H    2.989471   4.152390   1.522647
H    9.262738   4.933074  -0.861224
H   10.859292   0.157395   2.023386
H   12.858547   2.719259   0.730852

