%chk=mol_7038.chk
# wB97XD/Def2SVP opt pop=full gfinput

C 6 H 13 N 1

1 2
C    1.806125  -0.245702  -0.487814
C    4.678679  -0.218547  -0.442593
C    5.701360   2.366050   0.356629
C    8.571098   2.419568   0.416533
N    9.820000   2.294203  -2.064016
C    9.824819   4.014119   2.426484
C    9.881586   1.185633   2.630102
H    1.116601  -2.113923  -1.045737
H    1.074423   1.138919  -1.838817
H    1.030638   0.193432   1.378631
H    5.391011  -0.722631  -2.321510
H    5.352895  -1.679060   0.863567
H    4.936059   2.848668   2.222942
H    5.025424   3.827243  -0.950098
H   11.736314   2.243011  -1.884662
H    9.427446   3.876112  -3.091819
H    8.643721   5.041506   3.749462
H   11.578806   4.974742   1.984723
H   11.660536   0.224122   2.304615
H    8.732330   0.304699   4.079881

