%chk=mol_5983.chk
# wB97XD/Def2SVP opt pop=full gfinput

C 4 H 4 N 2 O 1

1 2
O    1.899345   0.007994  -0.270193
C    4.450929   0.085586   0.012245
C    5.702173   2.361931   0.081863
C    8.305724   2.292786   0.374638
C    9.457417  -0.046166   0.575289
N    8.152884  -2.240478   0.497187
N    5.601715  -2.172902   0.210308
H    1.599861  -1.808336  -0.247686
H    4.682987   4.127691  -0.086323
H    9.409456   4.016103   0.444823
H   11.484206  -0.237444   0.807423

