%chk=mol_6747.chk
# wB97XD/Def2SVP opt freq pop=full gfinput

C 6 H 11 N 1

1 2
C    0.77417970  -0.29049990  -0.54515982
C    2.19056916  -0.12855996  -0.04692999
C    3.29165888  -0.61119974  -0.97996962
N    3.02661896   0.80786967  -0.81829971
C    2.41043901  -0.14859995   1.48323953
C    1.78409934   0.88404965   2.39373899
C    1.36753941  -0.55273974   2.49906921
H    0.70696974  -0.21057992  -1.63642943
H    0.12290995   0.48018983  -0.11902995
H    0.38336986  -1.27312958  -0.26249990
H    3.01634908  -1.04180956  -1.93469918
H    4.21383858  -0.98818964  -0.55611980
H    3.71261859   1.24944949  -0.20493992
H    3.42760873  -0.43362981   1.76366937
H    1.08088958   1.58800948   1.96376932
H    2.39571905   1.29866958   3.18632889
H    1.69866931  -1.11545956   3.36488891
H    0.37153986  -0.81545967   2.16452909

