%chk=mol_5191.chk
# wB97XD/Def2SVP opt pop=full gfinput

C 5 H 9 N 1 O 1

1 2
C    1.508965  -0.207152  -0.029026
N    4.229207  -0.442706  -0.282968
C    5.346999  -2.796417  -0.054556
O    4.247632  -4.816968   0.195530
C    5.713851   1.831636  -0.259497
C    7.820216   2.261435  -2.127189
C    5.446644   3.792907  -2.306997
H    0.801584   1.193003  -1.372546
H    1.080130   0.400981   1.899250
H    0.567976  -2.011217  -0.386071
H    7.427833  -2.693994  -0.122813
H    6.024447   2.535351   1.648049
H    8.154093   0.862452  -3.585793
H    9.516566   3.193826  -1.457168
H    5.528072   5.764118  -1.758636
H    4.194569   3.412184  -3.882499

