%chk=mol_3638.chk
# wB97XD/Def2SVP opt freq pop=full gfinput

C 6 H 8 O 1

1 2
O    1.55677938  -0.39800987  -0.79557973
C    1.96234930   0.36805987   0.07161997
C    3.22957873   1.19468963  -0.03108999
C    3.64520860   1.47187936  -1.48054934
C    3.35963893   2.92791891  -1.65558946
C    3.02674890   3.51983857  -0.50596982
C    3.03347898   2.56292915   0.63834977
H    1.45406950   0.40120986   1.05157959
H    4.00100851   0.62230974   0.49792981
H    3.09746885   0.87968969  -2.21873927
H    4.71674824   1.29126954  -1.61994946
H    3.43808866   3.43563867  -2.60803914
H    2.80150890   4.57324839  -0.40316984
H    3.86998868   2.79562902   1.30646944
H    2.10225916   2.63533902   1.20897949

