%chk=mol_5663.chk
# wB97XD/Def2SVP opt freq pop=full gfinput

C 4 H 10 N 2 O 1

1 2
N    1.91373932  -0.07258997  -1.31599951
C    2.26866913   0.15096994   0.08927996
C    3.49039865   1.08041966   0.20546992
N    3.33862877   2.34874916  -0.56579977
C    2.86459899   3.02321887   0.66258973
C    3.60075879   1.94154930   1.49257946
O    4.94214821   2.27492905   1.92418921
H    1.15338957  -0.75022972  -1.36472952
H    2.70407891  -0.50399983  -1.79622924
H    2.48795891  -0.80670965   0.57368976
H    1.39788949   0.58081979   0.59672976
H    4.41156864   0.54343981  -0.05362998
H    2.63463879   2.25581932  -1.30504942
H    3.23245883   4.04616833   0.78392971
H    1.77551937   3.02427888   0.78440970
H    3.02654886   1.56734943   2.34671903
H    5.35797787   2.62483907   1.11285961

