%chk=mol_6146.chk
# wB97XD/Def2SVP opt freq pop=full gfinput

C 4 H 3 N 1 O 2

1 2
O    2.69233894  -1.13974953   0.12386996
C    2.19539905  -0.02250999   0.01931999
C    2.94115877   1.21930957   0.01265000
C    2.40921903   2.48393917  -0.10310996
O    3.43163872   3.38370872  -0.06726997
C    4.54233837   2.60958886   0.06982997
N    4.31471825   1.31769943   0.12302995
H    1.10246956   0.09091997  -0.07925997
H    1.41524947   2.89407873  -0.20996992
H    5.49145794   3.12446880   0.12105995

