%chk=mol_6571.chk
# wB97XD/Def2SVP opt pop=full gfinput

C 4 H 8 O 2 S 1

1 2
C    2.134105  -0.551460  -0.029253
C    4.978748  -0.246401  -0.194944
S    5.901596   2.983311   0.122057
O    4.926724   4.353268  -2.042813
O    5.278950   3.774369   2.673055
C    9.176718   2.770320  -0.086531
C   10.328411   2.793979  -2.340501
H    1.612995  -2.543137  -0.219529
H    1.183573   0.510698  -1.527541
H    1.415084   0.133982   1.784714
H    5.662281  -0.924227  -2.025427
H    5.902333  -1.315646   1.316005
H   10.214026   2.650946   1.670272
H    9.281314   2.964187  -4.099836
H   12.373096   2.692557  -2.469589

