%chk=mol_5066.chk
# wB97XD/Def2SVP opt pop=full gfinput

C 5 H 7 N 1 O 1

1 2
C    2.224246   0.191732  -0.443046
N    4.911946   0.350733   0.071828
C    6.371098  -1.971854   0.139764
C    7.102347  -2.769356  -2.416034
C    7.709005  -3.410540  -4.505787
C    6.109995   2.665478   0.089214
O    5.089165   4.727263  -0.150195
H    1.327155   2.051165  -0.361542
H    1.343917  -1.037630   0.966330
H    1.941694  -0.602955  -2.329919
H    5.254213  -3.432480   1.089522
H    8.075348  -1.656364   1.273713
H    8.246916  -3.966516  -6.366355
H    8.167283   2.508725   0.386921

