%chk=mol_1972.chk
# wB97XD/Def2SVP opt pop=full gfinput

C 6 H 5 N 1

1 2
N    1.889726   0.000000   0.000000
C    4.064820   0.000000   0.000000
C    6.793584   0.000000   0.000000
C    7.868612   2.202608  -1.460021
C    9.311399   1.359960  -3.370818
C    9.309320  -1.365119  -3.367038
C    7.867875  -2.203288  -1.457168
H    7.542351   0.000831   1.929996
H    7.527875   4.165089  -1.011911
H   10.319227   2.505531  -4.725506
H   10.317263  -2.515584  -4.721783
H    7.526439  -4.167035  -1.006676

