%chk=mol_6186.chk
# wB97XD/Def2SVP opt freq pop=full gfinput

C 5 H 9 N 1 O 1

1 2
O    4.51074839   0.60563976   1.93058920
C    3.41573858   1.12699962   1.74979937
C    2.99225903   1.82778943   0.48282981
C    4.13260841   2.04689932  -0.50433981
C    5.15737820   3.02202892   0.00161000
C    5.68186760   4.11070824  -0.89804965
N    4.77793837   4.41808844   0.20804992
H    2.63627911   1.07101965   2.53025913
H    2.53542900   2.78143883   0.76792967
H    2.21580911   1.20946956   0.01932999
H    3.70804858   2.40297914  -1.45132947
H    4.63280821   1.09604955  -0.72601974
H    5.83394766   2.58506894   0.72909969
H    5.26243830   4.22526836  -1.89025927
H    6.71180773   4.42472792  -0.78716969
H    5.29679823   4.81523800   0.99597961

