%chk=mol_3239.chk
# wB97XD/Def2SVP opt freq pop=full gfinput

C 5 H 12 O 2

1 2
C    0.92231965  -0.28544989  -0.12554996
C    2.42367911  -0.48103979  -0.28833988
O    2.66618896  -1.18623960  -1.50302947
C    3.16706872   0.85761970  -0.30528989
C    4.68498802   0.67012978  -0.42099985
C    5.42883778   2.00044942  -0.39505985
O    5.05493784   2.80633903  -1.50435948
H    0.68684971   0.22001991   0.81585968
H    0.40777984  -1.25226963  -0.14201996
H    0.50989980   0.30392990  -0.95212960
H    2.79576898  -1.10402966   0.53229982
H    2.29788923  -0.65667975  -2.23120904
H    2.93744874   1.41684949   0.60980976
H    2.81665897   1.45724952  -1.15449953
H    4.91499805   0.15066995  -1.35938954
H    5.04379797   0.04266999   0.40277985
H    6.51033735   1.83687937  -0.43763983
H    5.20574808   2.55488920   0.52111983
H    5.30612803   2.32265902  -2.31023908

