%chk=mol_6477.chk
# wB97XD/Def2SVP opt freq pop=full gfinput

C 4 H 6 N 2 S 1

1 2
C    0.97647965  -0.09187996   0.00317000
C    2.45540905   0.06228998   0.00730000
C    3.18327880   1.24341953   0.05162998
N    2.74528885   2.52029896   0.09441996
S    4.85933828   0.88210964   0.04878998
C    4.49139833  -0.78632969  -0.01276000
N    3.21651888  -1.09839964  -0.03448999
H    0.45999983   0.87247968   0.01601999
H    0.65562975  -0.65975976   0.88251972
H    0.65765971  -0.63463974  -0.89265966
H    3.40655875   3.27452874  -0.06674998
H    1.78404939   2.75447917  -0.13246995
H    5.26963806  -1.53786945  -0.03309999

