%chk=mol_0811.chk
# wB97XD/Def2SVP opt freq pop=full gfinput

C 4 H 8 O 2

1 2
C    1.64834940  -0.54332978  -0.40174985
O    3.00914907  -0.13974994  -0.32823989
C    3.12862873   1.22224951   0.07967997
C    4.57751799   1.56066930   0.15830994
C    5.33151770   2.05015922  -1.04765964
O    4.88408804   2.94921899  -0.02036999
H    1.61589932  -1.58907950  -0.71926975
H    1.10787964   0.06166998  -1.13624954
H    1.17074955  -0.46129984   0.57947975
H    2.67047906   1.35268950   1.06634963
H    2.60870910   1.86653924  -0.63914979
H    5.10807800   1.00925958   0.92220962
H    4.82249784   2.08036923  -2.00288916
H    6.39269733   1.84381938  -1.10517967

