%chk=mol_5408.chk
# wB97XD/Def2SVP opt freq pop=full gfinput

C 4 H 8 N 2 O 1

1 2
C    3.24787879  -0.41329983   1.55786932
O    2.33619905   0.53215981   0.99126959
C    2.86097908   1.38029945   0.07312997
N    4.09344864   1.35665953  -0.30313990
N    4.35041857   2.31218910  -1.21946955
C    5.35312796   1.76545942  -2.13565922
C    5.75046778   2.70239902  -1.03918958
H    2.69541883  -1.02481961   2.27675915
H    4.05296850   0.10240996   2.09064913
H    3.65069866  -1.07168961   0.78192973
H    2.08491921   2.07492924  -0.29124990
H    5.31528807   2.14872909  -3.14685869
H    5.61272812   0.71751970  -2.04793930
H    6.28953791   2.30805922  -0.18617992
H    5.98437738   3.72613859  -1.30003953

