%chk=mol_1152.chk
# wB97XD/Def2SVP opt pop=full gfinput

C 3 H 8 O 2 S 1

1 2
C    1.922229  -0.085548  -0.112401
C    4.773335   0.138271   0.014154
S    5.863877   3.328979   0.144337
C    4.911682   4.654471  -2.790483
O    4.507053   4.628469   2.138906
O    8.605567   3.248628   0.145225
H    1.363437  -2.076450  -0.097226
H    1.173312   0.768098  -1.838326
H    1.023192   0.844727   1.500235
H    5.660164  -0.754228  -1.626997
H    5.484552  -0.794195   1.718763
H    5.658539   3.492384  -4.322219
H    5.691893   6.561564  -2.911350
H    2.852976   4.741720  -2.865335

