%chk=mol_5419.chk
# wB97XD/Def2SVP opt freq pop=full gfinput

C 4 H 9 N 1 O 2

1 2
C    1.91050923   1.22114956  -1.38220942
O    3.14979887   0.95366967  -0.72468972
C    4.02977848   1.99604928  -0.75063968
O    3.82632852   3.07362890  -1.29019952
C    5.28129768   1.61166942  -0.00075000
C    6.24875784   2.78570890   0.08440997
N    7.44592714   2.41615915   0.83973968
H    1.28057957   0.33190989  -1.29108953
H    2.07520938   1.42277944  -2.44524908
H    1.39590955   2.05974913  -0.90230966
H    5.75112820   0.76988971  -0.52191979
H    4.99122810   1.29313958   1.00726962
H    5.76922798   3.64560866   0.56627983
H    6.54803753   3.10235882  -0.92125964
H    7.19365740   2.20274925   1.80470932
H    8.07239723   3.21996880   0.88585967

