%chk=mol_4658.chk
# wB97XD/Def2SVP opt pop=full gfinput

C 5 H 7 N 1 O 1

1 2
C    2.272131  -0.068578   0.953934
C    4.626503   0.139689   0.066405
N    5.865048   2.342788  -0.284460
C    4.971000   4.881635   0.197779
C    7.583849   5.800496  -0.749182
C    8.186577   2.969176  -1.136273
O    9.952280   1.727247  -1.879389
H    1.417710  -1.920321   1.177583
H    1.137634   1.554451   1.477142
H    5.700151  -1.541828  -0.436810
H    4.584476   5.273375   2.189928
H    3.372613   5.449347  -0.983054
H    7.555768   6.899050  -2.497273
H    8.765532   6.723532   0.670343

