%chk=mol_1112.chk
# wB97XD/Def2SVP opt freq pop=full gfinput

C 4 H 3 N 1 O 1

1 2
O    0.92297959  -0.05005998   0.00500000
C    2.12803912   0.02687999   0.00143000
C    2.97842884   1.20865953  -0.00181000
C    4.20448828   0.66995972  -0.00504000
N    4.30468845  -0.70703977  -0.00445000
C    3.08420897  -1.12508953  -0.00062000
H    2.66098905   2.23210931  -0.00153000
H    5.11767817   1.25639951  -0.00808000
H    2.69934893  -2.15281916   0.00116000

