%chk=mol_3832.chk
# wB97XD/Def2SVP opt pop=full gfinput

C 7 H 14

1 2
C    4.227053  -1.954298  -1.488575
C    3.589157   0.514856  -0.161213
C    5.904393   2.131025   0.360730
C    7.609077   1.135763   2.420985
C    7.111795   3.520352  -1.838760
C    5.579322   4.980127   0.058638
C    6.824122   6.855756   1.756368
H    2.494987  -3.002321  -1.916428
H    5.420226  -3.164743  -0.310350
H    5.228268  -1.612673  -3.267110
H    2.620597   0.111626   1.624012
H    2.237776   1.553185  -1.340893
H    9.328293   2.263835   2.642310
H    8.214129  -0.796633   2.007758
H    6.609979   1.130378   4.231720
H    6.318337   3.273251  -3.713463
H    9.148958   3.752051  -1.849210
H    3.738294   5.667081  -0.535832
H    8.836114   6.474637   2.031739
H    5.899347   6.865696   3.605049
H    6.656258   8.752229   0.947452

