%chk=mol_1444.chk
# wB97XD/Def2SVP opt pop=full gfinput

C 5 H 10 N 2

1 2
C    3.871595  -1.657857  -1.087197
C    4.162519   0.782498   0.393025
C    6.499165   2.210526  -0.486416
N    6.313480   3.740165  -2.397212
N    8.701225   1.698202   0.846163
C   11.074248   1.682574  -0.601897
C   10.496767   3.796895   1.166452
H    2.201021  -2.693294  -0.446523
H    5.524785  -2.876276  -0.842610
H    3.664047  -1.279137  -3.110546
H    4.335334   0.369347   2.413728
H    2.491302   1.977069   0.137402
H    4.494090   3.768133  -3.061697
H   10.882234   1.986593  -2.614096
H   12.358677   0.215089  -0.000359
H   11.376567   3.810708   3.007405
H    9.895267   5.594893   0.405913

