%chk=mol_3720.chk
# wB97XD/Def2SVP opt pop=full gfinput

C 7 H 8

1 2
C    1.892353  -0.102782   0.006916
C    4.762110   0.000000   0.000000
C    5.672996   2.572238   0.000000
C    6.423746   4.692322   0.000000
C    7.334632   7.264561   0.000000
C    6.233073   9.761116   0.000000
C    5.325154  11.818782   0.000000
H    1.241550  -2.066075   0.006633
H    1.104885   0.834805  -1.664036
H    1.112822   0.831801   1.682707
H    5.471324  -1.006695  -1.664830
H    5.479185  -1.009473   1.659765
H    8.639847   7.313486  -1.624125
H    8.639847   7.313486   1.624125
H    4.506505  13.658884   0.000000

