%chk=mol_6726.chk
# wB97XD/Def2SVP opt freq pop=full gfinput

C 6 H 9 N 1

1 2
C    0.92967963  -0.08913997  -0.00229000
C    2.41026926   0.03372999  -0.00290000
C    3.23478889   1.14787948  -0.00055000
C    2.81485891   2.57400894   0.00355000
C    4.57385826   0.66678977  -0.00306000
C    4.52726841  -0.70700973  -0.00678000
N    3.21182871  -1.08321965  -0.00671000
H    0.44733983   0.89298970   0.01049000
H    0.59156978  -0.64255971   0.87966967
H    0.58939976  -0.62080979  -0.89667964
H    3.68161869   3.24266863   0.00939000
H    2.21234918   2.79298878   0.89089966
H    2.21885896   2.79979897  -0.88649964
H    5.47654772   1.26448953  -0.00227000
H    5.31563807  -1.44752944  -0.00952000
H    2.88006902  -2.03797936  -0.00912000

