%chk=mol_5244.chk
# wB97XD/Def2SVP opt freq pop=full gfinput

C 4 H 10 N 2 O 1

1 2
C    2.34983921  -1.02953959  -1.13665962
N    3.67568851  -0.75124973  -0.59602976
N    3.91671872   0.54915982  -0.29612988
C    5.10038805   0.83562964   0.15649995
C    6.23958778  -0.11844996   0.37787986
O    5.46176815   2.10639906   0.48330981
C    4.47616816   3.11880875   0.25475991
H    2.27798915  -2.08445930  -1.41715944
H    2.15986919  -0.42890984  -2.03174925
H    1.57367945  -0.81529969  -0.39524987
H    3.83210850  -1.36175954   0.20947993
H    5.92499781  -0.93364966   1.03466964
H    7.08432722   0.39058986   0.85158968
H    6.57033777  -0.52145982  -0.58297980
H    4.93095827   4.08721828   0.48090982
H    3.62083864   2.97321892   0.92132962
H    4.16109848   3.12491870  -0.79343969

