%chk=mol_0183.chk
# wB97XD/Def2SVP opt freq pop=full gfinput

C 5 H 12

1 2
C    0.99781960  -0.06723997   0.01306000
C    2.51779914  -0.03169999   0.02454999
C    3.04392886   1.40283942  -0.01244999
C    4.57177830   1.43517947  -0.01302000
C    5.10046816   2.86016893  -0.04688998
H    0.64268976  -1.10241961   0.04218999
H    0.60089976   0.40232986  -0.89278966
H    0.58606976   0.45760983   0.88111967
H    2.89645886  -0.58976978  -0.83951968
H    2.88266897  -0.53890979   0.92428964
H    2.66504908   1.95586932   0.85581970
H    2.66614890   1.91075933  -0.90824968
H    4.95570803   0.88822967  -0.88283962
H    4.95593834   0.93000966   0.88223964
H    4.75804806   3.38357878  -0.94500965
H    6.19434786   2.85871887  -0.05049998
H    4.76393795   3.42360854   0.82896972

