%chk=mol_5424.chk
# wB97XD/Def2SVP opt freq pop=full gfinput

C 4 H 7 N 1 O 2

1 2
C    4.31308794  -1.90208936   0.84780967
O    4.96159840  -0.77566969   0.25647989
C    4.11083841   0.21106993  -0.12813994
O    2.89551878   0.18061993   0.01034000
N    4.83543825   1.22729957  -0.69079971
C    4.29504871   2.37523913  -1.19982958
C    5.05024815   3.33280873  -1.74231935
H    5.07279825  -2.66191888   1.05054963
H    3.57409883  -2.32925892   0.16241995
H    3.84558845  -1.61710942   1.79532933
H    5.83479738   1.08055949  -0.71772969
H    3.21187878   2.47217894  -1.14414954
H    6.13007784   3.25554872  -1.80799925
H    4.58926821   4.23149824  -2.14005923

