%chk=mol_6868.chk
# wB97XD/Def2SVP opt pop=full gfinput

C 5 H 8 N 2

1 2
C    1.909058   0.089176   0.015212
C    4.762677   0.060339  -0.036698
N    5.901218   2.234167   0.006198
C    8.485456   2.174810  -0.043161
C    9.857624   0.051533  -0.017291
C    8.654133  -2.489903   0.054481
N    5.949274  -2.244579  -0.135153
H    1.141357  -1.828291   0.007672
H    1.207743   1.102674  -1.644137
H    1.266381   1.066373   1.719481
H    9.411082   4.007656  -0.092313
H   11.902213   0.155090  -0.046185
H    9.349533  -3.639915  -1.517979
H    9.148864  -3.449185   1.819466
H    4.916368  -3.843438   0.026362

