%chk=mol_6433.chk
# wB97XD/Def2SVP opt pop=full gfinput

C 6 H 9 N 1

1 2
C    1.887572  -0.169905  -0.243132
C    4.629829   0.280908   0.145547
C    5.895303   2.429451  -0.301657
C    8.635859   2.023443   0.307440
N    8.881675  -0.601802   1.298091
C    8.469375  -2.576528  -0.589878
C    6.311383  -1.718441   1.044678
H    1.568888  -2.011916  -1.127845
H    1.049478   1.269650  -1.473930
H    0.889059  -0.136930   1.568567
H    5.113391   4.176408  -0.990727
H    9.827010   2.307941  -1.360678
H    9.232919   3.352374   1.776286
H    9.317635  -4.391610  -0.172645
H    8.515786  -2.054076  -2.568969
H    5.702570  -2.873574   2.622468

