%chk=mol_5333.chk
# wB97XD/Def2SVP opt freq pop=full gfinput

C 5 H 11 N 1 O 1

1 2
C    3.06320882  -0.26147988   0.73474973
O    2.29648900   0.89279968   0.41256985
C    2.95524907   2.07614923   0.13575995
C    1.97127926   3.17513871  -0.15983994
C    4.29597855   2.22947907   0.13091995
C    5.08721828   3.46565866  -0.15609995
N    5.94657803   3.76077867   0.98224968
H    2.36721921  -1.08240962   0.93121964
H    3.65519881  -0.09926996   1.64116931
H    3.69985867  -0.55529982  -0.10581996
H    1.36072946   3.37407875   0.72727972
H    1.30261946   2.86595893  -0.97071964
H    2.43008900   4.11684847  -0.46373981
H    4.93353796   1.37629950   0.34758988
H    4.47087860   4.33957863  -0.37361985
H    5.71320772   3.28468895  -1.03675961
H    5.35838795   3.99030852   1.78280926
H    6.48426723   4.60191822   0.78102970

