%chk=mol_5061.chk
# wB97XD/Def2SVP opt freq pop=full gfinput

C 5 H 13 N 1 O 1

1 2
C    2.07262921  -1.40556955   1.26672959
N    3.39162874  -1.29375958   0.63762975
C    3.43519878  -2.13305902  -0.56211978
C    3.68370867   0.11735996   0.33262989
C    5.10511827   0.38498986  -0.17252994
C    6.18007755  -0.08923996   0.79335970
O    7.45575762   0.27152988   0.26953989
H    2.03792930  -0.82771969   2.19757915
H    1.86165929  -2.44625902   1.53926945
H    1.26928961  -1.05137956   0.60980976
H    3.17674899  -3.16982865  -0.31583989
H    4.44466829  -2.16882896  -0.98473966
H    2.74414897  -1.78320932  -1.33775949
H    3.54782867   0.71249974   1.24647963
H    2.96660900   0.50818980  -0.40211987
H    5.22452784   1.46400940  -0.33524987
H    5.26564837  -0.06770997  -1.15767956
H    6.15764809  -1.17616951   0.91737962
H    6.06475782   0.38543984   1.77334929
H    8.12056732  -0.08919997   0.88112968

