%chk=mol_2319.chk
# wB97XD/Def2SVP opt pop=full gfinput

C 6 H 10 O 1

1 2
C    1.866482  -0.016025   0.071299
C    4.728964   0.050002  -0.011735
C    5.858321   2.139850   1.633630
C    8.511175   1.196253   2.235187
C    8.169249  -1.609990   2.784171
C    5.943170  -2.274040   1.135159
O    5.220822  -4.442519   0.772123
H    1.136651  -1.551805  -1.109704
H    1.068413   1.762755  -0.621040
H    1.168569  -0.336390   1.995135
H    5.406261   0.227372  -1.959892
H    4.783502   2.374649   3.391359
H    5.889275   3.962982   0.656907
H    9.742899   1.453596   0.588083
H    9.361514   2.202665   3.829171
H    9.840749  -2.702214   2.264345
H    7.661705  -1.934154   4.762450

