%chk=mol_5807.chk
# wB97XD/Def2SVP opt freq pop=full gfinput

C 4 H 8 N 2 O 1

1 2
N    1.13001966   0.07255998   0.47178981
C    2.28956914   0.22646990  -0.07028997
N    3.16681886   1.25120950   0.14736994
C    2.78374910   2.51631904   0.74117976
C    3.24382877   3.52136874  -0.28430989
C    4.44802856   2.81789899  -0.85805970
O    4.10262871   1.42442954  -0.89179969
H    0.71096975  -0.79553974   0.11981995
H    2.67250896  -0.52299982  -0.78645968
H    3.32030869   2.64780903   1.68785930
H    1.71052945   2.60786915   0.93700963
H    2.47679925   3.63518858  -1.05853963
H    3.46884894   4.50631857   0.13116995
H    4.68449831   3.16013885  -1.86933923
H    5.33411789   2.93918896  -0.22428991

