%chk=mol_3784.chk
# wB97XD/Def2SVP opt pop=full gfinput

C 5 H 6 O 2

1 2
O    2.498709  -1.123159  -1.738624
C    5.078148  -0.368648  -1.701056
C    5.501938   1.858564   0.076817
O    3.755472   2.636867   1.418693
C    8.037610   3.177858  -0.002022
C   10.183394   1.416312  -0.048112
C   11.949154  -0.006482  -0.102820
H    1.679041  -0.237973  -0.334274
H    5.611069   0.174271  -3.621358
H    6.209508  -1.979318  -1.075916
H    8.179982   4.393386   1.670877
H    8.062044   4.398111  -1.671841
H   13.525299  -1.262167  -0.149440

