%chk=mol_6769.chk
# wB97XD/Def2SVP opt pop=full gfinput

C 5 H 8 N 2

1 2
C    1.734599  -0.030935   0.168393
C    4.601162   0.001644  -0.090820
C    5.962010   1.954752   1.607609
N    7.733307  -0.023206   2.458401
C    5.999427  -1.996137   1.522930
C    5.369827   0.064591  -2.722604
N    5.982079   0.116691  -4.829120
H    1.153886  -0.079142   2.155270
H    0.918596  -1.696199  -0.753793
H    0.886697   1.656194  -0.682682
H    4.811356   2.718220   3.153499
H    6.864015   3.552515   0.649008
H    9.432436   0.012718   1.538143
H    6.931251  -3.533674   0.496715
H    4.864060  -2.846891   3.034144

