%chk=mol_5058.chk
# wB97XD/Def2SVP opt pop=full gfinput

C 5 H 13 N 1 O 1

1 2
C    2.480644   3.678805   1.752967
N    5.162524   3.891683   2.373685
C    6.718279   2.773381   0.373410
C    9.542021   2.980514   0.982809
C   10.687006   5.637809   0.752829
C    9.912559   7.488304   2.822306
O    7.483618   8.519244   2.348911
H    1.360641   4.577503   3.242071
H    1.890482   1.701736   1.613070
H    2.043928   4.647026  -0.023017
H    5.480772   2.935727   4.023681
H    6.342393   3.700821  -1.438384
H    6.239195   0.767418   0.167638
H   10.551418   1.757578  -0.355835
H    9.929547   2.206728   2.867546
H   10.224722   6.422140  -1.108324
H   12.747148   5.423741   0.836336
H   11.241225   9.072991   2.863313
H    9.926864   6.605500   4.693192
H    6.303578   7.082467   2.371436

