%chk=mol_4758.chk
# wB97XD/Def2SVP opt pop=full gfinput

C 4 H 7 N 1 O 2

1 2
C    1.567736   0.536569   0.097132
C    4.375869   0.042991  -0.277922
N    4.972058  -0.633115  -2.873348
C    4.429669  -2.956023  -3.861202
O    3.348633  -4.662313  -2.741690
C    5.862497   2.408513   0.409617
O    7.233078   3.552402  -1.079582
H    1.176109   1.155908   2.032608
H    0.451267  -1.166282  -0.266621
H    0.891951   2.015998  -1.184518
H    5.006470  -1.490144   0.962438
H    6.004794   0.621210  -3.899658
H    5.086160  -3.141556  -5.830334
H    5.666287   3.048090   2.384872

