%chk=mol_5745.chk
# wB97XD/Def2SVP opt freq pop=full gfinput

C 5 H 9 N 1 O 1

1 2
N    1.02267957  -0.00604000   0.18397993
C    2.46999907   0.00000000   0.00000000
C    2.87202883  -0.74607968  -1.27973950
C    2.26711917  -0.18309994  -2.56372905
O    2.73144913  -0.94448966  -3.67743874
C    2.95201898   1.36116946   0.00000000
C    3.34929872   2.48306894   0.00000000
H    0.79897970   0.45278984   1.06615961
H    0.69519973  -0.96654963   0.26827988
H    2.91724896  -0.53186983   0.84881967
H    2.58866882  -1.80413938  -1.19443953
H    3.96663857  -0.75037974  -1.37697947
H    2.54605913   0.86166966  -2.72842884
H    1.17539954  -0.25066993  -2.55261922
H    3.67996860  -0.75459975  -3.78018856
H    3.69621873   3.49062872  -0.00149000

