%chk=mol_5164.chk
# wB97XD/Def2SVP opt freq pop=full gfinput

C 4 H 10 N 2 O 1

1 2
C    1.07948959  -0.18089992   0.38208988
N    2.42884922  -0.17997992  -0.19896992
C    2.87044907  -1.56827939  -0.49049982
C    2.04817939  -2.28595924  -1.57148945
O    1.99407923  -1.51278937  -2.76745892
N    2.60796905   0.73187971  -1.19447958
C    3.76484847   1.30810952  -1.13917959
H    0.84620965   0.81428969   0.77791965
H    1.00689960  -0.88232970   1.22054958
H    0.31289989  -0.43031985  -0.35964987
H    2.86851883  -2.16111898   0.43186983
H    3.91573858  -1.52377939  -0.82150972
H    1.02436960  -2.47762895  -1.23645949
H    2.50623918  -3.24998879  -1.81338930
H    1.98999929  -0.57764977  -2.45913887
H    4.03159857   2.06574917  -1.89209926
H    4.52151823   1.08686960  -0.36616984

