%chk=mol_5038.chk
# wB97XD/Def2SVP opt freq pop=full gfinput

C 5 H 9 N 1 O 1

1 2
C    2.29938912  -0.42708984  -1.61142945
N    2.34073901   0.11699996  -0.26018989
C    3.27927876   1.23161960  -0.14116994
C    3.51999855   1.65370929   1.32617950
O    3.57383847   3.09694886   1.38586950
C    2.98110890   3.47763872   0.20248993
C    2.76703882   2.51298904  -0.68545979
H    1.59897947  -1.26791954  -1.64071941
H    3.28040886  -0.79917973  -1.92480922
H    1.94741929   0.31215990  -2.33746910
H    2.61485887  -0.62372977   0.38357985
H    4.24193811   0.98310965  -0.60553974
H    4.45867825   1.24168956   1.71307933
H    2.71002889   1.32609940   1.99140930
H    2.78334904   4.53244829   0.11019996
H    2.34185910   2.65521908  -1.66603935

