%chk=mol_3723.chk
# wB97XD/Def2SVP opt pop=full gfinput

C 6 H 8 O 1

1 2
O    2.578002  -0.666166  -1.738567
C    4.668096  -0.535189  -0.067614
C    5.359906   2.181009   0.215278
C    7.659551   3.137777  -0.280020
C    8.336546   5.878466  -0.013152
C   10.402546   6.159865   1.821753
C   12.091507   6.401391   3.317225
H    2.188549  -2.447006  -1.954204
H    6.218465  -1.662487  -0.844367
H    4.110438  -1.321467   1.761489
H    3.854777   3.419762   0.866477
H    9.152983   1.895036  -0.953953
H    6.703010   6.999508   0.589972
H    8.926330   6.606502  -1.859547
H   13.589833   6.613097   4.646837

