%chk=mol_5480.chk
# wB97XD/Def2SVP opt freq pop=full gfinput

C 5 H 7 N 1 O 1

1 2
N    1.01492965  -0.28074989  -0.18533993
C    2.39636898   0.06050998   0.19601993
C    3.49301863  -0.74424976  -0.63554978
O    4.36100817   0.47536984  -0.27053991
C    3.06328893   1.14212954  -0.76702970
C    2.90677881   0.69980973  -2.18067908
C    3.20364881  -0.60369974  -2.09017920
H    0.32739988   0.40329987   0.12771995
H    0.70438969  -1.18113959   0.17752993
H    2.57358909   0.17331994   1.27032959
H    3.88949871  -1.68294930  -0.24921991
H    3.00537896   2.20191932  -0.52017981
H    2.62253904   1.28260946  -3.03893900
H    3.22428894  -1.35963941  -2.85475874

