%chk=mol_0297.chk
# wB97XD/Def2SVP opt pop=full gfinput

C 4 H 10 N 2

1 2
C    1.859566   0.070732   0.130977
C    4.717494  -0.133056   0.033335
N    5.997651   1.838080   1.587408
C    7.907616  -0.082335   2.339840
C    5.950048  -2.163075   1.752324
N    7.094240  -4.173970   0.233230
H    0.991218  -1.541166  -0.831309
H    1.211371   1.792273  -0.817080
H    1.147876   0.102064   2.076318
H    5.393978  -0.119487  -1.931243
H    4.941426   2.456247   3.078194
H    9.598278  -0.037398   1.140525
H    8.508133   0.038758   4.315397
H    4.829044  -2.790237   3.374730
H    8.186652  -3.539211  -1.222672
H    5.805390  -5.364366  -0.558698

