%chk=mol_3850.chk
# wB97XD/Def2SVP opt pop=full gfinput

C 5 H 9 N 1 O 1

1 2
C    2.038259   0.057183   0.057637
C    1.214886   1.327892   2.454868
C   -0.917292   0.236802   3.999454
N    1.694385   0.112930   4.886133
C    4.838020   0.220361  -0.318551
C    6.510900  -2.050655   0.057278
O    5.761529  -1.228114  -2.416676
H    1.418693  -1.921889   0.023357
H    1.098743   0.995470  -1.533229
H    1.422813   3.364185   2.385156
H   -1.746485  -1.546476   3.435749
H   -2.166609   1.517091   4.992146
H    2.013787   1.429238   6.263668
H    5.610805   2.093042  -0.055974
H    5.683880  -3.779452   0.774429
H    8.456373  -1.741836   0.607868

