%chk=mol_6589.chk
# wB97XD/Def2SVP opt freq pop=full gfinput

C 3 H 7 N 1 O 2 S 1

1 2
C    1.04609966  -0.00545000   0.12259995
N    2.49838901   0.02849999   0.00118000
C    3.07014871   1.08286965   0.85979968
S    4.39084864  -0.00622000   1.32887948
O    4.54005814  -0.08009997   2.77103901
O    5.52787781   0.06303998   0.43138984
C    3.11134887  -1.08863962   0.74428976
H    0.64489979  -0.86515969  -0.42459983
H    0.61183977   0.89465964  -0.32535988
H    0.69801974  -0.07039997   1.16015959
H    2.47161913   1.39043951   1.72499931
H    3.41283870   1.97034919   0.32079986
H    3.48630857  -1.90044928   0.11501995
H    2.52674913  -1.50860941   1.57092941

