%chk=mol_5354.chk
# wB97XD/Def2SVP opt pop=full gfinput

C 4 H 8 N 2 O 1

1 2
C    8.312603  -0.957997  -1.577713
O    6.065416  -0.028799  -0.429043
C    6.040926   2.457834   0.289487
C    7.854212   4.205907   0.035451
C    7.482389   6.840374   0.942350
N    5.249338   7.746063   1.837532
N    9.323039   8.456203   0.888606
H    8.014688  -2.950656  -2.040829
H    9.911897  -0.837319  -0.270212
H    8.719801   0.053423  -3.336047
H    4.230738   2.843509   1.170478
H    9.667480   3.787011  -0.809672
H    3.672380   7.138969   0.943597
H    5.312606   9.657710   1.995154
H   10.943820   7.647400   0.210667

