%chk=mol_2060.chk
# wB97XD/Def2SVP opt freq pop=full gfinput

C 6 H 9 N 1

1 2
N    0.95223963  -0.18056993  -0.01497999
C    2.41213894  -0.14175993   0.03731999
C    2.93067908   1.29569948  -0.08326997
C    4.43214798   1.34593952  -0.02250999
C    5.20541763   1.79947937  -1.01895964
C    6.62107754   1.82780933  -0.90192962
C    7.81621742   1.85349929  -0.80702966
H    0.64094973  -1.14994955   0.03857999
H    0.63288975   0.16960993  -0.91758966
H    2.81697893  -0.76060969  -0.77186972
H    2.74203897  -0.58242977   0.98500967
H    2.53119898   1.90590930   0.73624969
H    2.56837893   1.74307942  -1.01757967
H    4.89072847   0.99849963   0.90188962
H    4.76875782   2.15934920  -1.94581926
H    8.87818623   1.87670934  -0.72084975

