%chk=mol_3512.chk
# wB97XD/Def2SVP opt pop=full gfinput

C 5 H 6 O 2

1 2
O    1.647860  -0.490724  -0.415419
C    4.252772   0.106656   0.174932
C    6.429793  -1.424702  -1.231629
O    8.045962   0.847334  -0.450870
C    5.693707   2.148241  -1.509589
C    5.478448   1.322374  -4.185649
C    5.988636  -1.152412  -3.994503
H    0.688900   0.942406   0.217564
H    4.511097   0.312428   2.221411
H    7.104388  -3.208490  -0.456426
H    5.579511   4.146437  -1.027047
H    5.029430   2.429640  -5.832300
H    6.057933  -2.581782  -5.436818

