%chk=mol_0712.chk
# wB97XD/Def2SVP opt freq pop=full gfinput

C 5 H 12 O 1

1 2
C    0.91521966  -0.09207997  -0.00468000
C    2.43060923   0.04259998  -0.00071000
C    2.96926904   1.48624945  -0.01100000
C    2.56007910   2.24633908  -1.27339959
C    2.55979896   2.27180934   1.23671949
O    4.40126848   1.40927947  -0.02574999
H    0.63668972  -1.15116954   0.00690000
H    0.47317982   0.35424986  -0.90009969
H    0.46685982   0.37574986   0.87651968
H    2.83718896  -0.49854979  -0.86512965
H    2.82848883  -0.48443982   0.87633967
H    2.85857892   1.69603944  -2.17296910
H    3.06801891   3.21667886  -1.32386947
H    1.48156941   2.42517900  -1.31649947
H    2.85174894   1.73668933   2.14717937
H    1.48198938   2.45546913   1.27248955
H    3.07257867   3.23999882   1.27035952
H    4.68474817   0.95125967   0.78402966

