%chk=mol_3430.chk
# wB97XD/Def2SVP opt freq pop=full gfinput

C 5 H 8 O 2

1 2
C    2.49072909  -0.55898976  -0.12843996
O    2.04827929   0.79026973  -0.03174999
C    2.99290895   1.79989934  -0.00227000
C    2.34446907   3.15341878   0.11251996
C    4.32440805   1.60742939  -0.05419998
C    5.32415771   2.69693899  -0.05954998
O    6.52459764   2.45015907  -0.08649997
H    1.60571945  -1.20173955  -0.15340994
H    3.08610868  -0.83797967   0.74686974
H    3.05169892  -0.72231972  -1.05431962
H    1.34325945   3.06555891   0.54942983
H    2.24091911   3.60898852  -0.87712967
H    2.90660882   3.82868862   0.76437974
H    4.77311850   0.62367976  -0.11910995
H    4.94549799   3.72927856  -0.05087998

