%chk=mol_0423.chk
# wB97XD/Def2SVP opt pop=full gfinput

C 5 H 11 N 1

1 2
C    4.434526  -0.847863  -2.610335
C    4.566315   0.300070   0.024869
N    6.234358   2.509330   0.042216
C    4.920431   4.790626  -0.949115
C    6.159203   6.284190   1.218042
C    6.235038   3.712575   2.582689
H    3.270984  -2.559370  -2.581082
H    6.317222  -1.374152  -3.292300
H    3.594732   0.465629  -3.970145
H    5.340498  -1.129376   1.311413
H    2.649661   0.732515   0.689372
H    2.847590   4.761845  -0.856443
H    5.495966   5.360605  -2.851011
H    8.026215   7.055368   0.758857
H    5.004694   7.752563   2.096651
H    7.935111   3.361653   3.704147
H    4.567090   3.350484   3.759553

