%chk=mol_6237.chk
# wB97XD/Def2SVP opt freq pop=full gfinput

C 4 H 8 N 2 O 1

1 2
O    2.32907915  -0.79970968   1.28021955
C    2.15301919  -0.20339993  -0.00041000
C    2.70797896   1.20843947   0.01757999
C    4.20862818   1.15078950   0.04925998
N    4.90662813   1.57907939  -0.95305967
N    6.26569748   1.42000949  -0.70367974
C    6.96611738   1.91697931  -1.66632938
H    1.98057926  -1.70681942   1.22321951
H    1.08023953  -0.18134993  -0.21464993
H    2.65362906  -0.82654971  -0.74900973
H    2.37818909   1.74819934   0.91109967
H    2.38605905   1.75463927  -0.87453967
H    4.67818832   0.72364974   0.95433968
H    8.06521702   1.87267935  -1.62294936
H    6.51828766   2.39716911  -2.55260897

