%chk=mol_2426.chk
# wB97XD/Def2SVP opt freq pop=full gfinput

C 5 H 8 O 2

1 2
C    1.03420961  -0.01070000   0.02610999
C    2.54841900  -0.00135000   0.11796996
C    3.09311867   1.22115958   0.83375973
C    4.37716818   0.64567971   1.32646954
O    5.32650805   1.31577945   1.71474934
C    4.33609819  -0.85743970   1.31189954
O    2.98629880  -1.13179958   0.88986969
H    0.69004971  -0.91742969  -0.48281983
H    0.66461974   0.86038965  -0.52279979
H    0.57873976  -0.02013999   1.02237964
H    2.98208904  -0.09030996  -0.88664967
H    2.48729920   1.50718939   1.69834936
H    3.24505877   2.06574917   0.15958993
H    5.03705835  -1.25953948   0.57717973
H    4.49174833  -1.27474952   2.30787921

