%chk=mol_0772.chk
# wB97XD/Def2SVP opt pop=full gfinput

C 5 H 10 O 1

1 2
C    2.414579  -1.990864  -0.423053
C    4.394237  -0.010450  -1.017485
O    6.816469  -1.008490  -0.387054
C    8.835735   0.752073  -0.862150
C   11.405669  -0.426832  -1.122138
C   10.070766   0.579088  -3.412108
H    0.520846  -1.306613  -0.896316
H    2.460575  -2.488713   1.585253
H    2.779844  -3.730584  -1.482698
H    4.040064   1.701283   0.089422
H    4.342345   0.460696  -3.031480
H    8.757048   2.586506   0.054424
H   11.552651  -2.457986  -0.905330
H   13.013089   0.617922  -0.404156
H   10.771269   2.307337  -4.254737
H    9.324438  -0.776583  -4.755345

