%chk=mol_3939.chk
# wB97XD/Def2SVP opt pop=full gfinput

C 5 H 7 N 1 O 1

1 2
C    1.886438  -0.110228   0.310180
C    4.681437   0.253582  -0.178315
C    6.077095   2.147485   1.512083
C    7.827813  -0.075476   2.143290
O    6.143651  -1.828159   0.847297
C   10.315259  -0.018670   0.991464
N   12.310583   0.087494   0.078858
H    1.163221  -1.723298  -0.764470
H    0.824091   1.566470  -0.271724
H    1.499573  -0.451966   2.313951
H    5.094607   0.486793  -2.196580
H    4.999535   2.856850   3.128763
H    6.928870   3.742092   0.509867
H    7.889871  -0.510094   4.167791

