%chk=mol_6165.chk
# wB97XD/Def2SVP opt freq pop=full gfinput

C 5 H 9 N 1 O 1

1 2
O    2.29234910  -0.35384986  -1.46356952
C    2.30532908   0.17665994  -0.13630995
C    3.34019876   1.30889952  -0.01613999
N    3.52782869   1.71217942   1.40117943
C    3.13923883   3.13036895   1.51103950
C    2.80049896   3.56997871   0.13681996
C    2.90876889   2.55428910  -0.71877974
H    1.60612941  -1.04280961  -1.47748947
H    2.56273913  -0.64487982   0.54127985
H    1.29521954   0.52486980   0.10835996
H    4.29747868   0.98018962  -0.43842983
H    4.52358866   1.64614940   1.60727930
H    3.96454859   3.72360849   1.91852939
H    2.27488923   3.22902894   2.17487931
H    2.49747896   4.57388830  -0.12136996
H    2.71164894   2.59893918  -1.78021944

