%chk=mol_2202.chk
# wB97XD/Def2SVP opt freq pop=full gfinput

C 6 H 8 O 1

1 2
C    2.06009936  -0.09527996  -0.03180999
C    0.78567970  -0.86990970   0.19748993
C   -0.41814983  -1.42330945  -0.49925983
C   -1.59913945  -0.48674980  -0.24054992
C   -1.39338946   0.75987971   0.23927991
O   -0.12431996   1.31139946   0.46136984
C    0.80389971   0.57576978  -0.36322987
H    2.70163894  -0.42073983  -0.84254968
H    2.60616922   0.25832990   0.83542967
H    0.63407975  -1.03385961   1.26743948
H   -0.65283978  -2.41020918  -0.08482997
H   -0.25588989  -1.54447937  -1.57623947
H   -2.60372901  -0.85888970  -0.40748984
H   -2.16977906   1.46375942   0.50460982
H    0.70599973   0.75475973  -1.43544948

