%chk=mol_6340.chk
# wB97XD/Def2SVP opt freq pop=full gfinput

C 4 H 8 N 2 O 1

1 2
O    1.16433954   0.07590997   0.65871978
N    2.32177925  -0.00007000  -0.12438995
C    2.93740892   1.14256954  -0.14586994
C    2.52403903   2.40393901   0.54549980
C    3.33474874   3.40743876  -0.26259989
N    4.58999872   2.72569895  -0.59671980
C    4.21621847   1.34147954  -0.92194968
H    0.80398971  -0.82729971   0.58767974
H    2.84601879   2.36117911   1.58945930
H    1.45123947   2.59002900   0.47609982
H    2.80078888   3.67544866  -1.18273962
H    3.51987886   4.32504797   0.30321988
H    5.04233789   3.16868901  -1.39447939
H    4.01293850   1.22014964  -1.99142921
H    4.98516798   0.63576972  -0.59649974

