%chk=mol_5744.chk
# wB97XD/Def2SVP opt pop=full gfinput

C 5 H 11 N 1 O 1

1 2
N    2.416034   0.227410   0.885563
C    4.919505   0.440514  -0.264222
C    4.824301  -0.606035  -2.968420
C    7.403002  -0.602293  -4.259178
O    7.210175  -1.695991  -6.710833
C    5.670917   3.174645  -0.187007
C    7.724142   4.069412   0.994809
H    2.517059   0.843555   2.708393
H    1.902104  -1.624276   0.976837
H    6.241558  -0.702392   0.851662
H    3.482142   0.464570  -4.135628
H    4.101594  -2.552018  -2.944042
H    8.786736  -1.691192  -3.172586
H    8.128997   1.318670  -4.495488
H    6.531782  -3.392096  -6.517306
H    4.438286   4.497699  -1.170364
H    9.015222   2.840183   2.008892
H    8.148026   6.077397   0.971470

