%chk=mol_1050.chk
# wB97XD/Def2SVP opt pop=full gfinput

C 4 H 9 N 1 O 1

1 2
C    1.933719  -0.094014  -0.050947
N    4.689393  -0.024377  -0.044560
C    5.602093   2.595199  -0.077025
C    8.479768   2.627759   0.024604
C    9.508195   5.281482  -0.000246
O    8.220100   7.195850  -0.227145
H    1.297562  -2.060463  -0.011716
H    1.158648   0.793024  -1.750907
H    1.157325   0.845482   1.619779
H    5.337191  -0.950872  -1.605965
H    4.846297   3.628992   1.554130
H    4.944166   3.559639  -1.790610
H    9.289592   1.628887  -1.598311
H    9.158936   1.712300   1.754100
H   11.582547   5.422305   0.169225

