%chk=mol_5204.chk
# wB97XD/Def2SVP opt pop=full gfinput

C 6 H 11 N 1

1 2
C    1.955885  -0.132508  -0.096848
C    4.774336   0.122889  -0.017442
C    6.495726  -1.112633  -2.066302
C    8.531358  -0.587856   0.010393
C    6.408968  -1.404728   1.898967
N    8.577013   2.203742   0.201690
C    5.860551   2.776178   0.206226
H    1.086895   0.641581   1.614317
H    1.388098  -2.117060  -0.246704
H    1.160764   0.871863  -1.723638
H    6.703085  -0.102744  -3.860540
H    6.126813  -3.110300  -2.476373
H   10.326957  -1.590110  -0.030292
H    6.030059  -3.439868   1.995305
H    6.537337  -0.669946   3.828831
H    9.375366   2.857172   1.828953
H    5.358489   3.977042  -1.402857
H    5.287208   3.710553   1.962896

