%chk=mol_1844.chk
# wB97XD/Def2SVP opt pop=full gfinput

C 4 H 5 N 3

1 2
C    3.553403  -0.671684  -1.053012
N    4.844993   1.372036  -1.391727
N    5.512671   2.436443   0.828891
C    7.985662   3.606656   0.440703
C    5.631818   5.191928   0.423374
C    5.163374   6.851599   2.515811
N    4.811696   8.225298   4.190638
H    2.879432  -1.744841  -2.703971
H    3.065060  -1.439140   0.826453
H    8.954372   3.272949  -1.332332
H    9.201454   3.641105   2.086957
H    4.978616   5.886062  -1.391897

