%chk=mol_1006.chk
# wB97XD/Def2SVP opt pop=full gfinput

C 4 H 9 N 1 O 1

1 2
C    1.626846  -0.006104   0.817817
C    4.450834  -0.107639   0.325789
C    5.651528   2.505437   0.435790
O    8.295256   2.248245  -0.045259
N    9.408795   4.649218   0.073302
C   11.793970   4.419729  -0.362431
H    0.815795  -1.906942   0.734385
H    0.669360   1.162654  -0.595604
H    1.227547   0.780400   2.689307
H    4.812150  -0.960302  -1.527296
H    5.362306  -1.348660   1.711714
H    5.376233   3.349180   2.308206
H    4.814644   3.747440  -0.995886
H   13.018833   6.102587  -0.354399
H   12.705744   2.586411  -0.753812

