%chk=mol_5197.chk
# wB97XD/Def2SVP opt pop=full gfinput

C 5 H 9 N 1 O 1

1 2
C    3.350976  -1.069944  -2.593857
N    5.974898  -0.749541  -1.946985
C    6.732187   1.182477  -0.389265
O    5.291649   2.701987   0.596379
C    9.514167   1.254910  -0.015326
C   10.558126   2.984558   1.518187
C   13.326840   3.189348   2.014448
H    3.109525  -2.916849  -3.483899
H    2.801651   0.423204  -3.912073
H    2.183522  -0.948170  -0.892952
H    7.269153  -1.863818  -2.798873
H   10.663063  -0.121585  -0.999117
H    9.354069   4.343384   2.489166
H   14.417646   1.794371   0.945770
H   13.704710   2.901032   4.026666
H   13.999451   5.072629   1.489388

