%chk=mol_0011.chk
# wB97XD/Def2SVP opt pop=full gfinput

C 2 H 5 N 1

1 2
C   -0.105673   1.667022  -0.124193
C   -1.444847  -0.837149  -0.123059
N    1.307539  -0.699501  -0.152312
H   -0.078310   2.747435  -1.861418
H   -0.047413   2.755391   1.606173
H   -2.329560  -1.461212  -1.859736
H   -2.317730  -1.488802   1.608327
H    2.038693  -1.089767   1.592019

