%chk=mol_5347.chk
# wB97XD/Def2SVP opt freq pop=full gfinput

C 5 H 9 N 1 O 1

1 2
C    1.38270950  -0.23626991  -0.29799989
O    2.79750896  -0.10596996  -0.36879987
C    3.24593878   1.11742961   0.21916991
C    4.77074862   1.21065950   0.10705996
C    5.22547817   1.24971950  -1.35223949
C    5.24425793   2.40590930   0.82185972
N    5.60576820   3.35177875   1.38861942
H    1.10098958  -1.18466949  -0.76312971
H    0.89576966   0.57858980  -0.84224969
H    1.05109966  -0.24534990   0.74466974
H    2.94277906   1.13583958   1.27382958
H    2.76743913   1.96448922  -0.28911990
H    5.21159792   0.31678990   0.56594980
H    4.80067778   2.11091924  -1.88074934
H    4.92361832   0.34233987  -1.88555920
H    6.31670761   1.32717955  -1.41927946

