%chk=mol_3973.chk
# wB97XD/Def2SVP opt pop=full gfinput

C 4 H 8 N 2 O 1

1 2
C    2.082044  -0.677013   0.450983
C    4.741096  -0.134360  -0.280719
C    5.678381  -0.694399  -2.868548
N    5.220652   1.858016  -2.052866
C    7.230584   3.503344  -1.680042
N    6.675136   5.891486  -2.466584
O    9.299494   2.971368  -0.790113
H    1.468468   0.630148   1.932018
H    1.928862  -2.602493   1.190395
H    0.777698  -0.496847  -1.145968
H    6.045687  -0.256001   1.293499
H    4.383239  -1.315854  -4.319536
H    7.646380  -1.188505  -3.128328
H    4.836565   6.382096  -2.574487
H    7.954349   7.238596  -2.028697

