%chk=mol_5153.chk
# wB97XD/Def2SVP opt freq pop=full gfinput

C 4 H 7 N 1 O 2

1 2
C    2.72705913  -0.90325969  -0.27426988
N    2.85618901   0.07318997   0.80490971
C    3.08553886   1.44181943   0.27619991
C    2.67061901   2.43375897   1.34345949
O    3.25854897   3.49093866   1.56070936
C    4.53724813   1.65249944  -0.12766995
O    5.40901804   0.78600973  -0.07191998
H    2.52626896  -1.88964927   0.15550995
H    3.63918853  -0.98089963  -0.87330967
H    1.88809931  -0.65682977  -0.93305963
H    3.68099856  -0.18573993   1.35820949
H    2.44307899   1.63191938  -0.59079975
H    1.72759938   2.20413899   1.86993933
H    4.77292824   2.65612888  -0.52380979

