%chk=mol_4050.chk
# wB97XD/Def2SVP opt freq pop=full gfinput

C 6 H 9 N 1

1 2
C   -1.82887936   0.97656959   0.39011985
C   -1.33348942  -0.36130986  -0.09703996
C   -0.24043992  -1.19890964   0.43871984
N    0.70639974  -0.45782983  -0.37977988
C    1.97065926  -0.07277997   0.10629996
C    0.78670973   0.89729971   0.16278994
C   -0.59968978   0.90507966  -0.49286982
H   -2.74114895   1.36513948  -0.04885998
H   -1.71185935   1.21205962   1.44123948
H   -1.90659928  -0.86732966  -0.86690968
H   -0.10857996  -1.11216962   1.52335942
H   -0.31338987  -2.24594903   0.13547996
H    2.32957935  -0.51686978   1.02568960
H    2.73754883   0.12650995  -0.63177973
H    0.70202971   1.18716955   1.21665955
H   -0.69419974   1.26996946  -1.51265943

