%chk=mol_4662.chk
# wB97XD/Def2SVP opt freq pop=full gfinput

C 5 H 11 N 1 O 1

1 2
C    2.33070922  -0.47847980  -1.37753940
C    2.41267896   0.14162993   0.01146000
N    3.30138874   1.30657947   0.00361000
C    2.60360909   2.51330900  -0.52647978
C    3.28401875   3.32057881   0.60884976
O    4.56954813   3.90879846   0.29818988
C    3.31067872   1.95657921   1.34503961
H    1.71056938  -1.38029945  -1.34968948
H    3.32304883  -0.76488972  -1.74181938
H    1.88522935   0.21281992  -2.10014915
H    2.82296896  -0.61066979   0.69638973
H    1.40184939   0.37906986   0.36736986
H    1.50767946   2.50974894  -0.46577981
H    2.89929891   2.79286909  -1.54222941
H    2.63902903   4.07147837   1.07598960
H    5.06020832   3.16929889  -0.10782996
H    4.21131849   1.75784934   1.93373919
H    2.42976904   1.78065932   1.97608924

