%chk=mol_6611.chk
# wB97XD/Def2SVP opt freq pop=full gfinput

C 5 H 6 O 1 S 1

1 2
C    2.98284888  -1.22803962   0.53105980
O    2.33234906   0.01105000   0.28029987
C    3.08502865   1.11850953   0.19393992
C    2.58700919   2.38616896  -0.04419998
C    3.59279871   3.39321876  -0.08982997
C    4.84664822   2.86781907   0.11607996
S    4.79824781   1.17980945   0.36022988
H    2.21492934  -2.00671935   0.56748980
H    3.49257874  -1.21905947   1.50004947
H    3.67560863  -1.48274946  -0.27766991
H    1.52981949   2.57357907  -0.18011993
H    3.40430880   4.44597864  -0.26448992
H    5.79093790   3.39476871   0.13498996

