%chk=mol_6892.chk
# wB97XD/Def2SVP opt pop=full gfinput

C 5 H 8 N 2

1 2
C    1.893959   0.035243  -0.176368
C    4.725015   0.061284   0.149421
N    5.851669   2.246355   0.230698
N    8.383298   2.185090   0.656472
C    9.929717   0.066310  -0.210667
C    8.539993  -2.382208   0.058563
C    6.023464  -2.432909   0.318060
H    1.157495  -1.891767  -0.278924
H    1.396073   1.034172  -1.916560
H    1.017825   1.000270   1.428633
H    9.202003   3.870461   0.203977
H   11.657948   0.005480   0.925588
H   10.475924   0.332837  -2.189701
H    9.624243  -4.119792   0.048812
H    4.936607  -4.148780   0.514572

