%chk=mol_5021.chk
# wB97XD/Def2SVP opt freq pop=full gfinput

C 5 H 7 N 1 O 1

1 2
C    2.92498899  -1.23141956   0.47819981
N    2.39371896   0.03636999   0.02692999
C    3.13465881   1.16653955   0.00800000
C    2.63859892   2.43705893  -0.17493995
O    3.64568853   3.34971881  -0.14305995
C    4.79496813   2.65314889   0.05483998
C    4.53338861   1.30509961   0.15235995
H    2.16931915  -2.01241922   0.34846988
H    3.18862891  -1.18841958   1.53987944
H    3.80639863  -1.52399945  -0.10162997
H    1.37908947   0.10302996   0.05994998
H    1.64948928   2.84110904  -0.33262989
H    5.69750786   3.24611878   0.09990996
H    5.26992798   0.53090984   0.30544990

