%chk=mol_6174.chk
# wB97XD/Def2SVP opt freq pop=full gfinput

C 4 H 4 N 2 O 1

1 2
O    2.64386892  -1.03560960   0.10591996
C    2.09406924   0.05001998   0.01330999
C    2.91054893   1.29320955  -0.01364999
N    2.40300918   2.48104906  -0.10984996
N    3.49444866   3.40569854  -0.10341996
C    4.59416819   2.73031878  -0.00435000
C    4.38744831   1.25944960   0.06907997
H    1.00639963   0.20317993  -0.05500998
H    5.59759808   3.17520881   0.02490999
H    4.84141827   0.75621969  -0.78495973
H    4.74271870   0.86016971   1.01936960

