%chk=mol_6275.chk
# wB97XD/Def2SVP opt freq pop=full gfinput

C 4 H 5 N 1 O 2

1 2
O    1.41308951  -0.12440996   0.42461982
C    2.62000895   0.08690996   0.41336983
N    3.20330882   1.32398939   0.38286987
C    2.51259923   2.60266900   0.18839994
C    3.74544859   3.07435894  -0.60099977
C    4.23361826   1.62539935  -0.45491984
O    5.18458796   0.97901964  -0.82627964
H    3.35953856  -0.73067975   0.35815987
H    2.32916927   3.13292885   1.12660968
H    1.59011948   2.52384901  -0.39411986
H    3.55148864   3.38058853  -1.63107932
H    4.38178825   3.80440855  -0.09460997

