%chk=mol_2527.chk
# wB97XD/Def2SVP opt freq pop=full gfinput

C 5 H 10 O 2

1 2
C    0.99156964   0.09507997   0.08421997
C    2.48928905  -0.10862996  -0.02511999
O    3.21330881   0.93770963   0.67482972
C    4.10549831  -0.03947999   1.26468956
C    3.20502901  -1.20986962   0.81251973
C    2.42854905  -1.84585929   1.95577919
O    3.85267854  -2.26175904   0.05030998
H    0.45612982  -0.76418972  -0.33073989
H    0.68385971   0.98328966  -0.47733980
H    0.66952980   0.23152991   1.12157953
H    2.78821898  -0.11875995  -1.08268964
H    5.09621811   0.00193000   0.80030972
H    4.20736837   0.10560996   2.34425902
H    1.96666920  -1.09516954   2.60582900
H    3.09005880  -2.45645905   2.57980919
H    1.63462937  -2.49591899   1.57319939
H    4.36764812  -1.80573928  -0.63870978

