%chk=mol_3818.chk
# wB97XD/Def2SVP opt freq pop=full gfinput

C 5 H 7 N 1 O 1

1 2
C    1.80735934  -0.22670990   0.10502996
C    0.88268965  -1.30888951   0.68174976
C   -0.19304992  -0.91228968  -0.34652987
C   -1.47694945  -0.24707989   0.15474993
N   -1.41110945   1.03985953   0.26558992
O   -0.09567996   1.47671950  -0.11806995
C    0.61944979   0.34355986  -0.67927974
H    2.60359907  -0.62101978  -0.53595978
H    2.24962902   0.44566983   0.84534967
H    1.25718951  -2.33230925   0.58950979
H    0.59591979  -1.13231969   1.72459936
H   -0.32828987  -1.60460949  -1.18148959
H   -2.37606907  -0.84043968   0.37427986
H    0.81242973   0.50039983  -1.74531937

