%chk=mol_1167.chk
# wB97XD/Def2SVP opt pop=full gfinput

C 6 H 9 N 1

1 2
C    5.309110  -1.581701  -2.192063
C    4.654603   0.001266   0.125270
C    5.720938   2.707637   0.000000
C    4.759767   4.219588   2.234355
C    3.307134   6.288271   2.052904
C    8.449702   2.707637   0.000000
N   10.624796   2.707637   0.000000
H    4.395597  -3.433576  -2.066718
H    7.347936  -1.898702  -2.344640
H    4.659403  -0.663124  -3.928363
H    5.346980  -0.978462   1.816688
H    2.588226   0.081561   0.285953
H    5.048517   3.587721  -1.754554
H    5.300965   3.560055   4.108416
H    2.709319   7.046562   0.242943
H    2.690706   7.283080   3.739711

