%chk=mol_1629.chk
# wB97XD/Def2SVP opt pop=full gfinput

C 6 H 11 N 1

1 2
C    1.963425   0.031917   0.002778
N    4.711409  -0.038324   0.131544
C    5.691175  -2.066529   1.748167
C    7.320024  -0.532336   3.550871
C    8.575709   1.488103   1.812663
C    5.727892   2.226400   1.431108
C    5.533269   1.658235   4.336336
H    1.255326  -1.674751  -0.931484
H    1.342632   1.643892  -1.138825
H    1.050007   0.171341   1.854539
H    6.825256  -3.396764   0.641468
H    4.224936  -3.119654   2.765009
H    8.450572  -1.468242   4.991145
H    9.603645   0.794743   0.155997
H    9.753935   2.898405   2.770641
H    5.264626   4.091578   0.693359
H    6.358211   3.092877   5.585180
H    3.686534   1.134214   5.102657

