%chk=mol_5655.chk
# wB97XD/Def2SVP opt freq pop=full gfinput

C 4 H 9 N 1 O 2

1 2
N    2.12746930  -0.27465990  -1.47229946
C    2.40451908   0.10860996  -0.08788997
C    3.10862875   1.45963943   0.03175999
C    2.29263926   2.63232899  -0.45798981
O    2.91098881   3.74866843   0.18841994
C    3.39259863   3.21747875   1.42546952
O    3.34896874   1.78754938   1.40551949
H    1.64817941  -1.17609966  -1.47627950
H    3.00801873  -0.42984983  -1.96476924
H    3.01779890  -0.66479975   0.38920987
H    1.46326947   0.13156995   0.47424984
H    4.08420849   1.43307948  -0.47008982
H    1.24962962   2.58608913  -0.12345995
H    2.31904912   2.76091909  -1.54350948
H    4.42346859   3.54976869   1.58073938
H    2.76990891   3.58306861   2.24758935

