%chk=mol_5645.chk
# wB97XD/Def2SVP opt freq pop=full gfinput

C 4 H 7 N 1 O 2

1 2
N    2.16056919  -0.46136984  -1.36287951
C    2.37287903   0.05078998  -0.00911000
C    3.14724874   1.35124958  -0.05174998
C    2.38711905   2.61078906  -0.48103979
O    2.57276893   3.19177866   0.83822972
C    3.22041893   2.08995914   1.29421949
O    3.65024853   1.87191939   2.40224910
H    1.57547939  -1.29751956  -1.31457949
H    3.04849887  -0.77940971  -1.75423932
H    2.91919899  -0.69830972   0.57430983
H    1.39827943   0.19145992   0.47198981
H    4.13839865   1.25542951  -0.51214981
H    1.32553947   2.48704910  -0.71531975
H    2.87314892   3.21052885  -1.25612950

