%chk=mol_3655.chk
# wB97XD/Def2SVP opt freq pop=full gfinput

C 5 H 8 O 2

1 2
O    3.01731896  -0.96652967  -0.60635978
C    2.35747910   0.10740996   0.05425998
C    3.19489884   1.38211954  -0.00819000
C    3.45744872   1.85815930  -1.44330943
C    3.23225880   3.31553864  -1.30327952
C    2.70627904   3.54798865  -0.10639996
O    2.51612902   2.44751906   0.70059979
H    2.44912910  -1.75028932  -0.50568980
H    2.18119907  -0.17460994   1.09806955
H    1.37720954   0.26298991  -0.41010985
H    4.15652847   1.20755947   0.49403983
H    2.75705886   1.43232954  -2.16934919
H    4.47776794   1.62197948  -1.75954926
H    3.42093873   4.05497837  -2.06478930
H    2.37477899   4.48351812   0.31230989

