%chk=mol_4353.chk
# wB97XD/Def2SVP opt freq pop=full gfinput

C 5 H 9 N 1 O 1

1 2
C    1.16291964  -1.91003931  -0.56323975
C    1.64803946  -1.01146960   0.30301988
C    2.16173911   0.34901986  -0.09289996
C    3.62740874   0.56149977   0.30218989
N    4.53117800  -0.31655988  -0.41594985
C    5.00355816  -0.00328000  -1.66321945
O    4.79229784   1.03800964  -2.26665926
H    0.79306972  -2.87172890  -0.22087993
H    1.11545956  -1.70569944  -1.62898946
H    1.66304934  -1.25508952   1.36339939
H    1.54692936   1.10280967   0.41298985
H    2.03949928   0.50913978  -1.17099965
H    3.77500868   0.37414986   1.37144947
H    3.91112852   1.60034943   0.09924996
H    4.65727806  -1.26094949  -0.07568997
H    5.61798811  -0.81657964  -2.08415914

