%chk=mol_7060.chk
# wB97XD/Def2SVP opt freq pop=full gfinput

C 6 H 11 N 1

1 2
C    2.68890905  -1.06180954   0.92111963
C    3.17576885  -0.28568989  -0.29192990
C    3.20412874   1.19019949  -0.02146999
C    4.31642866   1.94152927  -0.07294997
C    4.38255835   3.38016868   0.17991993
C    4.47860861   3.86862850   1.60167933
N    5.63671827   3.89681864   0.71727973
H    2.67393899  -2.13495922   0.70284975
H    1.67355931  -0.76159972   1.20399952
H    3.34444880  -0.90131962   1.78456926
H    2.50660896  -0.47552982  -1.13805950
H    4.16761827  -0.65204978  -0.57925975
H    2.25471902   1.66208935   0.22375992
H    5.26033831   1.45960939  -0.32496989
H    3.88068843   4.00799847  -0.54846984
H    4.51426840   3.14320874   2.40501928
H    4.03207827   4.82142830   1.85245931
H    5.81024790   4.84129810   0.37008986

