%chk=mol_0496.chk
# wB97XD/Def2SVP opt pop=full gfinput

C 4 H 12 N 2

1 2
C    2.819698  -0.339111   1.695217
N    5.475670   0.348768   1.466050
C    5.848778   2.997503   0.659099
C    4.793177   4.918220   2.545877
C    8.709635   3.516591   0.243378
N    9.951638   1.548460  -1.274223
H    2.670788  -2.375272   2.035103
H    1.760903   0.090027  -0.030727
H    1.923628   0.603465   3.303185
H    6.255466  -0.744684   0.076421
H    4.898132   3.268829  -1.166698
H    5.569685   4.618037   4.440819
H    2.731731   4.811810   2.666952
H    5.268821   6.847498   1.964106
H    9.685867   3.641521   2.069420
H    8.944547   5.339592  -0.709479
H   10.026282  -0.047867  -0.192450
H   11.789434   2.056381  -1.546401

