%chk=mol_6317.chk
# wB97XD/Def2SVP opt freq pop=full gfinput

C 4 H 7 N 1 O 2

1 2
O    1.37382948  -0.71802974  -0.46945983
C    1.79049933   0.08337997  -1.48252940
O    1.35980952  -0.01392000  -2.62216902
C    2.82431889   1.11677957  -1.04480958
N    3.19075894   0.86564964   0.37204987
C    4.55955839   0.37913987   0.54915982
C    4.20241833   1.80759931   0.85317969
H    1.86311924  -0.43460986   0.33957988
H    2.35538912   2.10315919  -1.12823951
H    3.67778873   1.05413961  -1.72932935
H    5.16856766   0.17117994  -0.32300988
H    4.72375822  -0.28930989   1.38721955
H    4.11841822   2.10183907   1.89284933
H    4.55522823   2.58294916   0.18313994

