%chk=mol_3881.chk
# wB97XD/Def2SVP opt freq pop=full gfinput

C 5 H 7 N 1 O 1

1 2
C    1.02505958   1.19219959  -0.14120995
O   -0.19855992   1.20100951   0.60190982
N   -1.27852952   0.85430968  -0.22921991
C   -1.41240942  -0.43559983  -0.30050987
C   -0.52615976  -1.46399951   0.37310988
C    0.92938966  -1.34270954   0.02211999
C    1.59335935  -0.19756992  -0.22701991
H    1.72980940   1.83250940   0.39852986
H    0.88033968   1.61953938  -1.13988960
H   -2.25322914  -0.82876968  -0.89472967
H   -0.87995964  -2.44307899   0.02914999
H   -0.67320979  -1.42606938   1.45628953
H    1.48249936  -2.27816916  -0.03254999
H    2.64582896  -0.25314990  -0.49441984

