%chk=mol_4657.chk
# wB97XD/Def2SVP opt freq pop=full gfinput

C 5 H 9 N 1 O 1

1 2
C    0.86032969   0.56398976  -0.64771980
C    1.64852929   1.86531937  -0.64159971
N    2.81996894   1.72064936   0.22798993
C    4.07135868   1.51287949  -0.49451983
C    3.74810863   2.85347891   0.11762996
C    4.38594818   3.25224876   1.39030945
O    5.28660774   4.08320856   1.40436947
H   -0.03441999   0.66787970  -1.27083957
H    0.53462982   0.29292989   0.36291987
H    1.45768940  -0.26213989  -1.04945958
H    1.00759959   2.66222906  -0.24713992
H    1.90161920   2.13828921  -1.67383945
H    4.04838848   1.42002952  -1.57386947
H    4.80501795   0.88412970  -0.00361000
H    3.48776865   3.66814852  -0.54792976
H    4.01500845   2.77799892   2.31478906

