%chk=mol_3382.chk
# wB97XD/Def2SVP opt pop=full gfinput

C 6 H 8 O 1

1 2
C    2.688287  -0.735425  -1.581096
O    4.704983  -0.403646   0.174592
C    5.742877   2.009799   0.125799
C    3.944954   4.192414   0.424735
C    8.268572   2.207710   0.000000
C    9.597050   4.508698   0.000000
C   10.721588   6.456457   0.000000
H    2.271715  -2.756940  -1.695217
H    3.222833  -0.078424  -3.469802
H    0.979464   0.230773  -0.930312
H    2.562620   3.777128   1.908397
H    2.929378   4.543601  -1.342499
H    4.893578   5.947724   0.964516
H    9.382377   0.487096  -0.126725
H   11.729303   8.198709   0.002494

