%chk=mol_6895.chk
# wB97XD/Def2SVP opt freq pop=full gfinput

C 6 H 7 N 1

1 2
C    1.86521935  -0.61618978  -1.14921951
C    2.05518913   0.32706988  -0.21782991
C    3.22250891   1.20921957  -0.11934996
C    3.49377871   2.19204903  -1.22740948
C    2.99836898   2.68940902   0.10644995
C    3.89859843   3.40225863   0.96710962
N    4.62708807   3.97842860   1.66239941
H    0.97456962  -1.23660958  -1.14140964
H    2.59406900  -0.79031968  -1.93466938
H    1.29211950   0.44069982   0.55155981
H    4.08609867   0.74940974   0.35479987
H    2.80989885   2.24100924  -2.06782913
H    4.52915859   2.36710930  -1.50105941
H    1.97285926   3.04546881   0.13551995

