%chk=mol_4916.chk
# wB97XD/Def2SVP opt freq pop=full gfinput

C 6 H 9 N 1

1 2
C    1.76369941  -0.33245987   0.39610988
N    0.74457973  -1.36392939   0.64245975
C   -0.10624996  -0.80146968  -0.41954982
C   -1.44858944  -0.48052981   0.08546997
C   -1.49221945   0.78462976   0.52459979
C   -0.18155994   1.50050938   0.39056984
C    0.71492970   0.50661981  -0.35901985
H    2.58793902  -0.67803979  -0.23912990
H    2.18365908   0.12327995   1.29722941
H    1.05319953  -2.31892920   0.47637981
H   -0.07448997  -1.33824944  -1.37246943
H   -2.27434921  -1.17658949   0.10190997
H   -2.37132931   1.24619949   0.95271963
H    0.22433992   1.75787938   1.37413955
H   -0.31234989   2.41900921  -0.19011994
H    1.05328965   0.88797963  -1.32928956

