%chk=mol_2527.chk
# wB97XD/Def2SVP opt pop=full gfinput

C 5 H 10 O 2

1 2
C    1.873796   0.179675   0.159153
C    4.704076  -0.205281  -0.047470
O    6.072276   1.772015   1.275244
C    7.758271  -0.074606   2.389918
C    6.056629  -2.286323   1.535440
C    4.589294  -3.488170   3.695889
O    7.280510  -4.274107   0.095072
H    0.861961  -1.444110  -0.625008
H    1.292308   1.858149  -0.902042
H    1.265228   0.437528   2.119479
H    5.268972  -0.224424  -2.045988
H    9.630460   0.003647   1.512367
H    7.950777   0.199574   4.430009
H    3.716468  -2.069571   4.924305
H    5.839367  -4.642036   4.875134
H    3.089003  -4.716605   2.972917
H    8.253662  -3.412354  -1.206987

