%chk=mol_4771.chk
# wB97XD/Def2SVP opt freq pop=full gfinput

C 4 H 6 N 2 O 1

1 2
C    0.72022974   0.17300993  -0.01277000
C    2.18819928  -0.05818998  -0.18269993
N    3.05030894   0.80908972   0.23917991
N    4.34903812   0.38530988  -0.02279999
C    5.20190763   1.25639951   0.40332985
C    6.65957785   0.99207968   0.21907991
O    7.48071718   1.80358934   0.61452979
H    0.30204988  -0.63890976   0.58756983
H    0.24425991   0.16135995  -0.99643964
H    0.52745980   1.13020968   0.47793981
H    2.49295926  -0.99661958  -0.67907977
H    4.94598818   2.20416903   0.90480971
H    6.90562725   0.04305998  -0.28200990

