%chk=mol_4021.chk
# wB97XD/Def2SVP opt freq pop=full gfinput

C 4 H 6 N 2 O 1

1 2
C    1.04706955  -0.06140998   0.20780993
C    2.36377931   0.01726999  -0.01183000
C    3.24184895   1.22229958  -0.04846998
N    4.54986811   0.75926971  -0.55915976
N    4.44936848  -0.64299971  -0.63091975
C    3.21355867  -1.15521955  -0.30361989
O    2.88487887  -2.32592893  -0.26247990
H    0.53751975  -1.02191961   0.19253993
H    0.45281982   0.82262969   0.40729985
H    3.37688875   1.62972939   0.95914966
H    2.83276892   2.00326920  -0.69797975
H    4.65651798   1.11060953  -1.51584935
H    5.24441814  -1.25731945  -0.77836972

