%chk=mol_4977.chk
# wB97XD/Def2SVP opt pop=full gfinput

C 5 H 11 N 1 O 1

1 2
C    2.061502  -0.004630  -0.143052
N    4.794122  -0.055596   0.191864
C    5.696069   2.036558   1.762302
C    8.388173   1.231175   2.331204
C    8.196555  -1.625542   2.670126
O   10.268904  -2.845039   1.474364
C    5.655572  -2.364255   1.477350
H    1.451366  -1.583874  -1.332087
H    1.485003   1.735600  -1.102769
H    1.042637  -0.115821   1.658159
H    4.611385   2.209090   3.521108
H    5.638867   3.844516   0.760048
H    9.651455   1.717874   0.760010
H    9.122540   2.156990   4.030106
H    8.222123  -2.131743   4.678490
H   10.140233  -2.465110  -0.325222
H    5.833490  -3.932690   0.138385
H    4.338414  -2.916339   2.983122

