%chk=mol_1265.chk
# wB97XD/Def2SVP opt freq pop=full gfinput

C 7 H 8

1 2
C    1.01723957   0.03455999  -0.27610987
C    2.32342911   0.00760000   0.00497000
C    3.18883896  -1.21186960   0.21409993
C    4.53204823  -0.64095974   0.60241973
C    5.62288761  -1.31811941   0.97011966
C    4.41605854   0.79591972   0.52333981
C    3.17183876   1.16134953   0.18689993
H    0.45176983  -0.88485968  -0.38499984
H    0.48070982   0.96990967  -0.39612988
H    3.27256870  -1.78435934  -0.71689975
H    2.78647900  -1.84762931   1.00963962
H    5.61778831  -2.40267920   1.01305962
H    6.54234743  -0.81008971   1.24295962
H    5.22797823   1.47968948   0.72344977
H    2.83682895   2.18193913   0.07602997

