%chk=mol_3195.chk
# wB97XD/Def2SVP opt pop=full gfinput

C 6 H 10 O 1

1 2
C    1.806654  -0.175820   0.197722
C    4.684744  -0.032579   0.074531
O    5.441391  -1.405276  -2.135561
C    5.720938   2.707637   0.000000
C    4.759124   4.317344   2.204233
C    8.449702   2.707637   0.000000
C   10.698779   2.707637   0.000000
H    1.072004   0.565652   1.982134
H    1.173671  -2.139548   0.012491
H    0.949039   0.873885  -1.365988
H    5.469793  -1.050291   1.701831
H    5.105171  -0.355968  -3.604671
H    5.084950   3.595771  -1.764588
H    5.197994   3.438281   4.026931
H    2.713666   4.598554   2.096481
H    5.633255   6.195694   2.190022
H   12.712623   2.692085  -0.003005

