%chk=mol_0338.chk
# wB97XD/Def2SVP opt pop=full gfinput

C 6 H 14

1 2
C    2.107612  -0.198383   0.172645
C    4.970244  -0.456747   0.168318
C    6.257771   2.104115  -0.212972
C    9.157594   1.996042   0.009071
C   10.359649   0.271875  -1.975690
C   10.257301   4.662710  -0.219303
H    1.221443  -2.052280   0.418555
H    1.432148   0.604183  -1.609858
H    1.474780   1.023608   1.717629
H    5.508344  -1.764400  -1.343274
H    5.580550  -1.295029   1.961120
H    5.532702   3.432631   1.205400
H    5.726532   2.869171  -2.066038
H    9.652362   1.263754   1.886967
H    9.794867   0.823599  -3.887733
H    9.816484  -1.701113  -1.683954
H   12.424742   0.357914  -1.868750
H    9.834059   5.491903  -2.066983
H   12.312964   4.633325   0.014211
H    9.476807   5.907529   1.237223

