%chk=mol_6761.chk
# wB97XD/Def2SVP opt freq pop=full gfinput

C 6 H 11 N 1

1 2
C    0.94103968   0.07095998  -0.21012992
C    2.40876913  -0.06302997   0.01466000
C    3.29492879  -0.89554965  -0.87209970
N    2.75422907  -1.63372934  -2.01396918
C    3.38078880   0.61446977  -0.92109960
C    4.54961824   1.28623950  -0.34252989
C    5.80037785   1.21862948  -0.81690973
H    0.55416977   0.92786968   0.35217988
H    0.42121986  -0.82650965   0.14180996
H    0.68641979   0.22403991  -1.26434958
H    2.63416910  -0.08232997   1.07608962
H    4.10787868  -1.41899943  -0.37065986
H    2.08798909  -1.07494962  -2.54380894
H    2.24625921  -2.45829892  -1.69652927
H    2.97752881   1.11314952  -1.79694927
H    4.36917830   1.90271926   0.53532982
H    6.03533792   0.62400979  -1.69475937
H    6.61125755   1.75423932  -0.33431986

