%chk=mol_4298.chk
# wB97XD/Def2SVP opt freq pop=full gfinput

C 4 H 7 N 1 O 2

1 2
C    1.01557970   0.01838999  -0.02037999
C    2.52814913   0.11883996   0.01944999
C    2.95433879   1.54584944   0.00394000
N    3.16130877   2.27751923   1.04535961
O    3.52225876   3.54267859   0.54314977
C    3.48026848   3.42421865  -0.87704968
O    3.10182881   2.10566926  -1.20939946
H    0.70124972  -1.02975965  -0.00486000
H    0.61357981   0.48381981  -0.92694968
H    0.56454980   0.52468979   0.84009963
H    2.96888900  -0.39794987  -0.83937967
H    2.91536880  -0.35710987   0.92633969
H    4.46987820   3.64244866  -1.28968954
H    2.75039887   4.13313818  -1.27945960

