%chk=mol_3352.chk
# wB97XD/Def2SVP opt freq pop=full gfinput

C 6 H 10 O 1

1 2
C    3.69805861  -0.73913974  -1.26702952
O    2.76019883   0.07628997  -0.57561976
C    3.19708872   1.29409957  -0.13478994
C    4.40479851   1.86522925  -0.26156989
C    4.75827837   3.19422889   0.24959990
C    5.04594803   3.35193872   1.71968937
C    6.16590786   3.44288874   0.72518969
H    3.19391870  -1.66853929  -1.54821944
H    4.54435825  -0.99605960  -0.62105978
H    4.04140854  -0.25050992  -2.18484902
H    2.38157916   1.79487932   0.37752986
H    5.19662809   1.33999944  -0.78872967
H    4.25797844   4.01769876  -0.25134990
H    5.00694799   2.47764897   2.36031914
H    4.71847820   4.26575851   2.20306921
H    6.59766769   4.41930866   0.53524983
H    6.88539743   2.63222909   0.70091975

