%chk=mol_3595.chk
# wB97XD/Def2SVP opt freq pop=full gfinput

C 5 H 6 O 2

1 2
O    1.11319959  -0.07325997  -0.52229983
C    2.50044918  -0.02778999  -0.22747992
C    2.77533913   1.21883965   0.55170983
C    3.35443878   1.16652954   1.76163936
O    3.71456861  -0.00757000   2.38838911
C    3.44389892  -1.19287956   1.73846936
C    2.87761903  -1.26697946   0.52578980
H    0.67027974  -0.41278985   0.27397990
H    3.04738879   0.00771000  -1.17626953
H    2.51401901   2.17067909   0.10636996
H    3.59405851   2.02770925   2.36677909
H    3.74790859  -2.04402924   2.33125901
H    2.69350910  -2.22757912   0.05935998

