%chk=mol_4037.chk
# wB97XD/Def2SVP opt pop=full gfinput

C 5 H 11 N 1 O 1

1 2
C    1.680099   0.210988   0.093541
C    4.528842  -0.043294   0.038380
C    6.030872   1.734769   1.763870
O    7.518162  -0.357839   2.730749
C    5.690022  -2.147787   1.687450
C    7.013152  -4.301773   0.289714
N    8.408261  -5.911536   2.057836
H    0.790510  -1.364401  -0.910621
H    1.088671   1.966147  -0.828305
H    0.946866   0.228940   2.029150
H    5.245521  -0.034506  -1.907206
H    4.975082   2.656672   3.285799
H    7.206376   3.124813   0.785861
H    4.434772  -2.834816   3.192012
H    8.331065  -3.547696  -1.118699
H    5.617060  -5.455715  -0.709517
H    9.581780  -4.771332   3.088568
H    9.556231  -7.097906   1.067903

