%chk=mol_1899.chk
# wB97XD/Def2SVP opt pop=full gfinput

C 5 H 10 N 2

1 2
N    1.999481   0.445711  -0.676881
C    4.683082  -0.018311  -0.172702
C    6.046670  -1.959741  -1.713396
C    6.648510   0.797181  -2.080154
N    9.084764   1.772525  -1.137388
C   10.982011   1.713264  -3.140158
C    9.767106   4.156547  -2.341635
H    1.505507   2.197789  -0.042689
H    0.912435  -0.798787   0.314904
H    5.217345   0.117087   1.809488
H    5.029657  -2.911955  -3.213215
H    7.429760  -3.134432  -0.763336
H    5.915958   1.636408  -3.813014
H   10.475017   0.903157  -4.950289
H   12.899289   1.343973  -2.526980
H   10.866851   5.444376  -1.192852
H    8.431807   5.055377  -3.605106

