%chk=mol_4512.chk
# wB97XD/Def2SVP opt freq pop=full gfinput

C 4 H 8 N 2 O 1

1 2
C    0.75472975   0.21588992  -0.07541997
C    2.22028923   0.00655000  -0.26941988
C    3.16030884   0.87355965   0.13671996
N    4.52094793   0.71531975  -0.02629999
N    5.00528812  -0.44752982  -0.66927975
C    5.45937824   1.65261936   0.40811986
O    6.67654753   1.55161941   0.27870992
H    0.33583990  -0.60498977   0.51501983
H    0.24907991   0.23424992  -1.04611957
H    0.53423977   1.15502954   0.44179985
H    2.50536919  -0.91172969  -0.77717972
H    2.85908890   1.78961933   0.63893980
H    5.49116802  -0.99190962   0.04776998
H    5.76049757  -0.13890995  -1.29042947
H    4.99587774   2.52659893   0.89557964

