%chk=mol_2730.chk
# wB97XD/Def2SVP opt pop=full gfinput

C 6 H 12 O 1

1 2
C    1.514294  -0.360484  -0.201369
C    4.404290  -0.294476  -0.236745
C    5.396907  -1.916144  -2.417111
C    5.330142   2.455491  -0.412830
C    8.144455   2.673225  -0.189710
C    9.779465   3.200308  -2.462011
O    9.091340   5.157441  -0.717623
H    0.772728   0.734140   1.390820
H    0.823826  -2.301176  -0.007011
H    0.724710   0.428306  -1.944339
H    5.088352  -1.121420   1.538955
H    4.843425  -1.129848  -4.249087
H    4.648839  -3.841435  -2.294562
H    7.458938  -2.052186  -2.369735
H    4.486021   3.553101   1.129508
H    4.670212   3.312860  -2.181027
H    8.932660   1.698883   1.425043
H    8.921114   3.246058  -4.316305
H   11.719344   2.551074  -2.431907

