%chk=mol_5804.chk
# wB97XD/Def2SVP opt freq pop=full gfinput

C 6 H 9 N 1

1 2
C    1.07804966  -0.13036995   0.06689997
C    2.53932905   0.13165994  -0.00826000
C    3.14421892   1.31843960   0.21019992
C    4.64051819   1.16309953   0.07206997
C    4.85420799  -0.30519989  -0.23780991
N    4.46235847  -1.36027944   0.69051975
C    3.48788881  -0.95700967  -0.31146988
H    0.88377964  -1.13310957   0.46044981
H    0.62808979  -0.05790998  -0.92714965
H    0.57903981   0.58426976   0.72679973
H    2.64958906   2.24640918   0.45536983
H    5.00842857   1.78551936  -0.74775970
H    5.15017796   1.44560945   0.99792963
H    5.60197830  -0.53209984  -0.98638964
H    4.21068811  -0.97314966   1.60293937
H    3.27641869  -1.62985933  -1.13204968

