%chk=mol_1622.chk
# wB97XD/Def2SVP opt freq pop=full gfinput

C 5 H 10 N 2

1 2
C    1.15928960  -0.00196000  -0.04677998
N    2.61478901  -0.11256996  -0.04598998
C    3.14854884  -0.75720972  -1.23326957
C    3.25995874   0.74487972  -1.05001962
C    4.55513859   1.44558942  -0.66455972
C    5.91045761   1.04879963  -1.20079958
N    5.24641800   2.24748898  -1.68426943
H    0.85542965   0.84805971   0.57303983
H    0.72386974  -0.90517968   0.39315987
H    0.71507972   0.13205995  -1.04084957
H    2.46287894  -1.13217962  -1.98276925
H    4.03333855  -1.36246943  -1.08232963
H    2.59685922   1.34913957  -1.66756940
H    4.54549837   1.89385927   0.32784986
H    5.97137785   0.22551991  -1.90053928
H    6.77568722   1.18672955  -0.56535977
H    5.64573765   3.08631897  -1.25985956

