%chk=mol_2568.chk
# wB97XD/Def2SVP opt freq pop=full gfinput

C 5 H 8 O 2

1 2
C    1.13053954  -0.02225999   0.11386996
C    2.64328909  -0.03796998   0.00949000
O    3.17479897   1.11625957   0.66506976
C    4.42832851   0.68164974   1.18341959
C    4.25474834  -0.78782970   1.30814946
C    4.99678850  -1.61973929   2.04453921
O    3.15538883  -1.23562944   0.60464978
H    0.69451970  -0.89199966  -0.38803983
H    0.71665972   0.89307970  -0.32134989
H    0.81580967  -0.05809998   1.16322958
H    2.94815898  -0.01380999  -1.04403961
H    5.21503830   0.93445963   0.46559981
H    4.61616850   1.17914951   2.13844919
H    4.76068783  -2.67838907   2.08360934
H    5.84452820  -1.26667953   2.61969924

