%chk=mol_4345.chk
# wB97XD/Def2SVP opt pop=full gfinput

C 5 H 7 N 1 O 1

1 2
C    1.891616  -0.102480   0.005839
C    4.762110   0.000000   0.000000
C    5.672996   2.572238   0.000000
C    6.423746   4.692322   0.000000
C    7.455499   7.213860   0.000000
N   10.020141   7.365075   0.000000
O    6.082386   9.069627   0.000000
H    1.242797  -2.066718   0.004535
H    1.105414   0.834957  -1.664338
H    1.112463   0.830383   1.681856
H    5.471967  -1.006695  -1.664546
H    5.478902  -1.009303   1.659992
H   11.122702   5.807827   0.000000
H   10.825013   9.095195   0.000000

