%chk=mol_6790.chk
# wB97XD/Def2SVP opt freq pop=full gfinput

C 6 H 13 N 1

1 2
C    0.99046963   0.02775999  -0.01070000
C    2.50807905   0.00063000   0.04162998
C    3.10025907   1.08985960   0.91947967
N    4.46953821   0.61735976   1.15124953
C    4.34146833  -0.83220971   1.38976943
C    5.58623743  -1.58118939   0.93403965
C    3.07599878  -1.27882946   0.64867979
H    0.61108977  -0.79138970  -0.62922978
H    0.63614976   0.97118968  -0.44105983
H    0.55224979  -0.07158998   0.98812962
H    2.89780879   0.10858996  -0.97980958
H    2.57061887   1.18430960   1.87489927
H    3.09523892   2.06735921   0.42726985
H    5.01036835   0.76739973   0.29814988
H    4.20744848  -0.99727964   2.46605921
H    5.76671743  -1.44907951  -0.13878995
H    5.48080826  -2.65418911   1.12681961
H    6.47345781  -1.22911954   1.47177947
H    3.27252889  -2.02178931  -0.13199995
H    2.37159920  -1.72373927   1.36218953

