%chk=mol_4200.chk
# wB97XD/Def2SVP opt freq pop=full gfinput

C 4 H 6 N 2 O 1

1 2
C    0.93645966  -0.14518994  -0.00499000
C    2.39084911   0.06870998  -0.00194000
C    3.22824860   1.15746963   0.00514000
N    2.90927911   2.45007896   0.01333999
N    4.53008842   0.77356976   0.00461000
C    4.44990826  -0.53858978  -0.00011000
O    3.18657875  -1.04842961  -0.00468000
H    0.39550987   0.80506968   0.00474000
H    0.63191974  -0.71797973   0.87578970
H    0.63316977  -0.69911975  -0.89813972
H    3.64534879   3.14546895  -0.01766999
H    1.96299934   2.80267882  -0.03028999
H    5.25900793  -1.25543952   0.00060000

