%chk=mol_6220.chk
# wB97XD/Def2SVP opt freq pop=full gfinput

C 4 H 9 N 1 O 2

1 2
O    0.85554969   0.09304997   0.12606995
C    2.26920915  -0.05572998   0.08395997
C    2.89826870   1.33081961   0.02647999
C    4.41987848   1.28823948   0.05435998
C    4.96453857   0.69275975  -1.21371961
N    5.58275795  -0.44283983  -1.19374955
O    5.97605753  -0.76378971  -2.49704885
H    0.47735980  -0.80236971   0.16681993
H    2.52539921  -0.64726973  -0.80032974
H    2.58892918  -0.59520978   0.98120958
H    2.53770924   1.92190933   0.87744969
H    2.54332900   1.85226929  -0.87130970
H    4.77936792   0.72178972   0.92014968
H    4.81250811   2.30825901   0.12799995
H    4.80125809   1.25637960  -2.14932919
H    6.46210766  -1.60038948  -2.37025905

