%chk=mol_1193.chk
# wB97XD/Def2SVP opt freq pop=full gfinput

C 6 H 11 N 1

1 2
C    0.94791967  -0.07593997   0.01301000
C    2.46788907  -0.04247998   0.01642999
C    2.99725890   1.39144945   0.00680000
C    4.52672863   1.41925955   0.00339000
C    5.05845785   2.85217905   0.00583000
C    6.52658749   2.87028909  -0.00300000
N    7.68798685   2.88612890  -0.01034000
H    0.59170979  -1.11080956   0.02392999
H    0.54688978   0.41188985  -0.88114965
H    0.54210979   0.43235984   0.89348966
H    2.84131885  -0.58362979  -0.86070967
H    2.83692884  -0.56928980   0.90412968
H    2.62142920   1.92738926   0.88690966
H    2.61837888   1.91738927  -0.87804967
H    4.90191841   0.88600969  -0.87961966
H    4.90684843   0.88140970   0.88138968
H    4.69221830   3.38324881   0.89208966
H    4.68128824   3.39095879  -0.87099969

