%chk=mol_4801.chk
# wB97XD/Def2SVP opt freq pop=full gfinput

C 4 H 9 N 1 O 2

1 2
C    3.72254872   4.37611866  -3.70941877
C    4.46424818   3.44216871  -2.80790901
N    5.38485813   3.88220859  -2.01234937
O    5.91429758   2.79491901  -1.29529953
C    6.91852760   3.26778865  -0.38575986
C    8.20480728   3.58817863  -1.14369953
O    8.03924656   4.74929810  -1.95637929
H    4.02594852   5.41186810  -3.53648877
H    2.65032911   4.27101851  -3.52390885
H    3.92689848   4.10192871  -4.74724817
H    4.19968843   2.37195897  -2.86447883
H    7.10236740   2.46523905   0.33510989
H    6.53885746   4.14234829   0.15633994
H    8.48387623   2.76055908  -1.80233932
H    9.02418613   3.78326845  -0.44665983
H    7.11530733   4.69944811  -2.28627920

