%chk=mol_1698.chk
# wB97XD/Def2SVP opt pop=full gfinput

C 7 H 10

1 2
C    1.492789   0.956712  -0.082978
C    3.932822   0.401586   0.302375
C    6.185168   2.138830   0.076288
C    7.520505   2.544592   2.628458
C    6.700156   5.154379   3.566102
C    5.874554   6.442945   1.199504
C    5.586522   4.799583  -0.700559
H    0.046090  -0.482220   0.138196
H    0.864455   2.836422  -0.610741
H    4.392895  -1.535213   0.830421
H    7.515157   1.300661  -1.274167
H    9.574732   2.544025   2.333264
H    7.116671   1.072079   4.026269
H    8.270745   6.145049   4.475684
H    5.123463   5.024914   4.901194
H    5.496835   8.446604   1.073005
H    4.958188   5.300606  -2.579438

