%chk=mol_2055.chk
# wB97XD/Def2SVP opt pop=full gfinput

C 6 H 9 N 1

1 2
N    5.131135  -1.415329  -2.372910
C    4.547928  -0.018482  -0.045146
C    5.626451   2.707637   0.000000
C    4.717663   4.083944   2.337194
C    3.321647   6.197773   2.305334
C    8.355216   2.707637   0.000000
C   10.604293   2.707637   0.000000
H    4.545623  -3.239690  -2.176454
H    7.046033  -1.489199  -2.597939
H    5.273867  -1.102901   1.566470
H    2.486275   0.050928   0.147058
H    4.943580   3.700027  -1.689963
H    5.250699   3.282303   4.153920
H    2.744941   7.085150   0.546906
H    2.737382   7.095808   4.055277
H   12.618023   2.723870  -0.000340

