%chk=mol_2493.chk
# wB97XD/Def2SVP opt freq pop=full gfinput

C 5 H 8 O 2

1 2
C    0.84181964  -0.00284000  -0.01307000
C    2.36429906  -0.00023000  -0.13771994
C    3.02441883   0.00254000   1.23967957
O    2.77224898  -1.20173955  -0.84446967
C    3.39234877  -0.65816975  -1.94380927
C    3.38999891   0.65738976  -1.94537926
O    2.76787877   1.20121956  -0.84717971
H    0.37558985  -0.00428000  -1.00515962
H    0.48442981   0.88995969   0.51056981
H    0.48762983  -0.89622968   0.51169980
H    4.11617851   0.00375000   1.14233959
H    2.75201893  -0.88990968   1.81272936
H    2.74986911   0.89604968   1.81005931
H    3.79842854  -1.35108948  -2.65867901
H    3.79349852   1.35013950  -2.66175890

