%chk=mol_1116.chk
# wB97XD/Def2SVP opt freq pop=full gfinput

C 4 H 9 N 1 O 1

1 2
O    2.21192932  -0.38794985  -1.36275947
C    2.37104917   0.06758998  -0.02203999
C    3.14989877   1.37467957  -0.03578999
C    2.40039897   2.63058901  -0.53931975
C    3.10325885   3.34428883   0.62393975
N    3.20796895   2.03004932   1.30261946
H    1.68162942  -1.20231962  -1.31865942
H    2.91585875  -0.69990975   0.53658980
H    1.37809944   0.19034994   0.42252985
H    4.14397860   1.25893962  -0.49062982
H    1.30922949   2.58824897  -0.44143981
H    2.66001892   2.97654867  -1.54270947
H    4.07365847   3.78278852   0.36259988
H    2.50520921   4.08881855   1.15557957
H    4.08244848   1.88692927   1.80578935

