%chk=mol_1349.chk
# wB97XD/Def2SVP opt pop=full gfinput

C 5 H 10 N 2

1 2
C    6.215876  -1.818030   2.254046
C    5.177528  -0.420464  -0.035565
C    5.610559   2.425539   0.103803
C    8.375418   3.058163  -0.075589
N    9.507627   4.212029   1.757256
N   12.043640   4.593319   1.188505
C   13.149961   5.802857   2.996199
H    5.740988  -3.827981   2.135901
H    5.414122  -1.071437   4.008600
H    8.275640  -1.661768   2.360381
H    3.141178  -0.778567  -0.165408
H    6.043438  -1.193381  -1.751625
H    4.815306   3.209643   1.846357
H    4.670779   3.338730  -1.498912
H    9.372702   2.498312  -1.822471
H   15.173291   6.259075   2.849688
H   12.160104   6.423633   4.722633

