%chk=mol_5854.chk
# wB97XD/Def2SVP opt pop=full gfinput

C 5 H 7 N 1 O 1

1 2
N    5.134084  -1.825570  -0.876493
C    4.121398   0.288486   0.187914
O    2.000577   0.253015   1.116129
C    5.745372   2.617724   0.054519
C    4.543544   4.846411   0.246496
C    8.484096   2.416582  -0.027174
C   10.022484   3.907840  -1.376250
H    6.753674  -1.802137  -1.884189
H    4.034660  -3.386710  -0.930615
H    2.497462   4.946226   0.400017
H    5.554453   6.628422   0.285311
H    9.299683   0.904158   1.105244
H    9.314328   5.433057  -2.552321
H   12.054450   3.626233  -1.328761

