%chk=mol_5859.chk
# wB97XD/Def2SVP opt pop=full gfinput

C 5 H 7 N 1 O 1

1 2
N    2.215024  -0.945997  -0.332535
C    4.785580  -1.145911  -0.326375
O    5.818637  -3.203294  -0.553557
C    6.151701   1.339721  -0.016837
C    9.008192   0.981467  -0.056824
C   10.320286   3.415548   0.245230
C   11.399754   5.394771   0.491178
H    1.292781   0.717737  -0.172589
H    1.197047  -2.551281  -0.540443
H    5.558119   2.192668   1.776891
H    5.563600   2.605857  -1.549235
H    9.588905   0.099456  -1.839989
H    9.584899  -0.307817   1.459700
H   12.367596   7.148853   0.709365

