%chk=mol_5202.chk
# wB97XD/Def2SVP opt freq pop=full gfinput

C 5 H 7 N 1 O 1

1 2
C    1.93522930  -0.91356969  -0.47823980
N    3.19767880  -0.25723991  -0.25375989
C    3.33295894   1.10260963  -0.45675984
O    2.44089913   1.79969931  -0.93463963
C    4.70452833   1.66202939  -0.11749995
C    5.08380842   1.43347955   1.28661954
C    5.40438795   1.25655949   2.43113899
H    2.09643912  -1.99385929  -0.46690983
H    1.52016938  -0.60789979  -1.44253945
H    1.24408948  -0.63179976   0.32056987
H    3.88860846  -0.72520971   0.31997988
H    4.69610834   2.73739910  -0.32817987
H    5.43519783   1.20322955  -0.79301971
H    5.69023800   1.11183953   3.44773889

