%chk=mol_5302.chk
# wB97XD/Def2SVP opt freq pop=full gfinput

C 4 H 6 N 2 O 1

1 2
C    3.26573873  -1.15113962   0.49853981
O    2.48365903   0.00793000   0.26413992
C    3.12571883   1.16727960   0.14144994
N    2.49537897   2.30015922  -0.06806998
C    3.47186875   3.25982881  -0.13816994
C    4.71625805   2.70206881   0.03092999
N    4.48048830   1.36593950   0.20815992
H    2.58963919  -2.00793934   0.57642978
H    3.81735873  -1.06903958   1.44138944
H    3.95235848  -1.33703947  -0.33444989
H    3.22439885   4.30001831  -0.30661988
H    5.71110773   3.12314892   0.04009998
H    5.17887831   0.65384978   0.36023986

