%chk=mol_1148.chk
# wB97XD/Def2SVP opt pop=full gfinput

C 6 H 12

1 2
C    6.016340  -2.042700  -1.290040
C    4.948059  -0.220210   0.666620
C    5.915863   2.505663   0.353209
C    4.576577   4.255040   2.227704
C    8.737073   2.683770   0.743324
C   10.357211   3.542310  -1.002084
H    5.150864  -3.908596  -1.066958
H    8.060702  -2.271677  -1.079808
H    5.625016  -1.382013  -3.210607
H    5.392541  -0.930369   2.563754
H    2.881247  -0.230244   0.498453
H    5.433360   3.149947  -1.559156
H    4.936532   3.689237   4.187954
H    2.528680   4.223897   1.924232
H    5.213603   6.213212   2.003601
H    9.473953   2.070365   2.563792
H    9.721167   4.176654  -2.845965
H   12.369694   3.626687  -0.613424

