%chk=mol_6390.chk
# wB97XD/Def2SVP opt freq pop=full gfinput

C 4 H 3 N 1 O 2

1 2
O    1.00710964   0.21509993  -0.23202991
N    2.37055898   0.29663986  -0.54179984
C    2.99119878   0.82212967   0.46260983
C    4.47286844   1.03578961   0.41079983
O    5.20977831   0.17087993   0.86490971
C    5.02229786   2.27038908  -0.10380997
C    5.48859787   3.29827881  -0.51614982
H    0.64124978  -0.25637990  -1.00513959
H    2.50573897   1.15446949   1.39396954
H    5.91336775   4.20624828  -0.87846965

