%chk=mol_4088.chk
# wB97XD/Def2SVP opt freq pop=full gfinput

C 5 H 9 N 1 O 1

1 2
C    0.92039967   0.03378999  -0.25320992
C    2.34042931   0.36371988   0.05557998
N    3.40887880  -0.48979980  -0.44284984
C    3.26661873   0.85810965  -1.03025961
C    4.43749857   1.74651945  -0.79586971
C    4.58891869   2.37645912   0.55913979
O    5.21503830   1.97647917  -1.71720934
H    0.29713991   0.92529970  -0.13681996
H    0.55179977  -0.73089969   0.43723983
H    0.79210973  -0.33821988  -1.27459955
H    2.46000910   0.71981972   1.07144964
H    3.07099891  -1.19035959  -1.10520959
H    2.88611889   0.88832968  -2.04605913
H    3.68361855   2.93236876   0.81431973
H    5.43054771   3.07509875   0.54317981
H    4.78964806   1.60831928   1.30957961

