%chk=mol_5421.chk
# wB97XD/Def2SVP opt pop=full gfinput

C 4 H 9 N 1 O 2

1 2
C    3.667769  -0.023905   0.912114
O    6.334948   0.353946   1.065900
C    7.182774   2.370321  -0.300561
O    5.857886   3.730622  -1.627243
C   10.061998   2.621107  -0.039420
C   11.336751   0.956334  -2.012048
N   10.830890   5.284657  -0.354815
H    3.191615  -1.685314   2.043474
H    3.095428  -0.378985  -1.043185
H    2.661812   1.607477   1.687658
H   10.612437   2.030530   1.865953
H   10.805341   1.516297  -3.934901
H   10.780113  -1.024591  -1.773054
H   13.398460   1.057226  -1.856524
H    9.893415   6.010709  -1.882224
H   12.706424   5.384586  -0.766227

