%chk=mol_3732.chk
# wB97XD/Def2SVP opt freq pop=full gfinput

C 7 H 14

1 2
C    1.15461957   3.37459874  -1.22190964
C    2.38178921   2.47694898  -1.20932949
C    3.20079875   2.66873884   0.06737997
C    4.41014862   1.77680933   0.07713997
C    5.67284775   2.22777915   0.13191995
C    6.88092756   1.33566952   0.15076995
C    7.78458691   1.60063934  -1.04250968
H    0.57913977   3.21753883  -2.13996911
H    1.44011950   4.43094873  -1.17701960
H    0.50079978   3.15874887  -0.37025985
H    2.99790883   2.69991899  -2.08832932
H    2.06111932   1.43217945  -1.29738963
H    2.58599901   2.42876911   0.94322968
H    3.49434876   3.72129869   0.16331995
H    4.22139835   0.70521975   0.04560998
H    5.86114788   3.29902887   0.17478994
H    6.58898735   0.27922991   0.15426993
H    7.43772745   1.51723945   1.07688963
H    7.26011753   1.41437948  -1.98626935
H    8.66039658   0.94460964  -1.00685966
H    8.14008713   2.63713908  -1.04914963

