%chk=mol_0154.chk
# wB97XD/Def2SVP opt freq pop=full gfinput

C 4 H 11 N 1

1 2
C    1.16123962  -0.27644989  -0.08986996
C    2.67730880  -0.16164994  -0.05524998
C    3.12734866   1.29718947   0.01796999
C    4.65063810   1.40279949   0.05381998
N    5.06032848   2.80057907   0.12968995
H    0.86137968  -1.32787955  -0.14397995
H    0.74874973   0.23975991  -0.96271968
H    0.71458972   0.15849994   0.80986965
H    3.09375882  -0.63623977  -0.95231962
H    3.05948877  -0.71491975   0.81107968
H    2.70224905   1.76603937   0.91379970
H    2.73681903   1.84321928  -0.84870970
H    5.08464813   0.94609964  -0.84338969
H    5.04644823   0.86782968   0.92459965
H    4.72299814   3.30176878  -0.69110972
H    6.07762766   2.85704899   0.10093997

