%chk=mol_4080.chk
# wB97XD/Def2SVP opt freq pop=full gfinput

C 4 H 6 N 2 O 1

1 2
C    0.87938964  -0.05635998   0.14177996
C    2.21317911  -0.06235998   0.01090000
C    3.03095889   1.21432960  -0.09783997
O    4.28599834   1.05968964   0.59484977
N    5.06531811  -0.05256998   0.14708994
C    4.34842825  -1.11165965  -0.06941997
N    2.98578882  -1.19855952  -0.04403998
H    0.32162988   0.87401968   0.17942993
H    0.31019989  -0.97586966   0.22116992
H    2.50940919   2.06403923   0.35436985
H    3.23928881   1.45191956  -1.14716959
H    4.83816814  -2.06314921  -0.33229986
H    2.52428913  -2.09593916  -0.08521997

