%chk=mol_5420.chk
# wB97XD/Def2SVP opt freq pop=full gfinput

C 4 H 7 N 1 O 2

1 2
C    1.19894958   0.45096985  -0.58193982
O    2.57960892   0.34782988  -0.23098992
C    3.24698877   1.52745938  -0.28892988
O    2.78124881   2.61082888  -0.60222977
C    4.65248823   1.27304959   0.08304997
C    5.53787804   2.27607918   0.09450997
N    6.86897707   2.19369912   0.41678983
H    0.76496971  -0.55205977  -0.54854983
H    1.08704960   0.84166968  -1.59847939
H    0.66907972   1.08296955   0.13731995
H    4.92651796   0.25993991   0.34501988
H    5.22913790   3.29058862  -0.16035993
H    7.26334715   1.25683951   0.38032985
H    7.45159721   2.88804889  -0.04745998

