%chk=mol_0225.chk
# wB97XD/Def2SVP opt freq pop=full gfinput

C 5 H 9 N 1

1 2
C    0.94341964   0.00081000   0.98538965
C    0.29873991   0.98638964  -0.03263999
C   -1.20869958   0.77545971   0.07447997
C   -1.22171962  -0.75016975   0.08549996
C    0.28177989  -0.98826963  -0.01806999
N    0.79135972  -0.01289000  -1.07328963
H    2.03944921  -0.00829000   1.02074957
H    0.55241978   0.01169000   2.00669932
H    0.69735974   1.99892926  -0.10102996
H   -1.62258947   1.19860959   0.99472964
H   -1.74878943   1.18640959  -0.78415972
H   -1.76878929  -1.16407955  -0.76721972
H   -1.64284933  -1.15275955   1.01164961
H    0.66301978  -2.00839925  -0.07172997
H    0.25946990  -0.01471999  -1.94333935

