%chk=mol_4498.chk
# wB97XD/Def2SVP opt pop=full gfinput

C 4 H 10 N 2 O 1

1 2
C    6.136395  -2.150433  -0.166806
C    5.232444   0.092181   1.395638
C    6.041965   2.628137   0.250597
N    4.918050   4.749808   1.654871
C    8.895564   2.976054   0.286785
N   10.198360   2.742635   2.349270
O   12.746354   3.183527   1.801060
H    5.445132  -3.916854   0.659099
H    8.201449  -2.247508  -0.229810
H    5.430109  -2.033780  -2.107895
H    5.946798  -0.106562   3.331209
H    3.164214   0.007370   1.507038
H    5.415615   2.746471  -1.719443
H    5.733146   4.800698   3.408102
H    3.046824   4.410130   1.955867
H    9.795508   3.477096  -1.526861
H   13.539566   3.055536   3.460485

