%chk=mol_2619.chk
# wB97XD/Def2SVP opt freq pop=full gfinput

C 6 H 8 O 1

1 2
C    1.07389963  -0.11717996  -0.36048988
C    2.40501928   0.01053000  -0.30295989
C    3.11084890   1.25506961  -0.17040993
C    4.43642807   1.38602948  -0.11281995
C    4.80369854   2.81356907   0.02378999
O    3.56595874   3.54214883   0.04394998
C    2.48046899   2.60178900  -0.07558997
H    0.62337977  -1.10001957  -0.46143982
H    0.39831984   0.72969973  -0.31062987
H    3.01237869  -0.89074969  -0.35992986
H    5.15876818   0.58489978  -0.15711994
H    5.34192801   3.00689888   0.95598966
H    5.40375757   3.16112876  -0.82190967
H    1.90560937   2.85449886  -0.97183967
H    1.84336936   2.70000911   0.80873966

