%chk=mol_6988.chk
# wB97XD/Def2SVP opt freq pop=full gfinput

C 6 H 7 N 1

1 2
C    0.99999964   0.00000000   0.00000000
C    2.19015908   0.00000000   0.00000000
C    3.63415861   0.00000000   0.00000000
N    4.14679813  -1.23185956   0.63884974
C    4.58362818  -0.85331964   1.99671924
C    4.69159794   0.62775975   1.97462928
C    4.15213823   1.10771966   0.85178965
H   -0.06500997  -0.00875000   0.00726000
H    4.03129864   0.08022997  -1.01759958
H    4.97597790  -1.51151943   0.11892995
H    5.54372787  -1.32226956   2.23286915
H    3.84407854  -1.17539954   2.73544908
H    5.10571814   1.21894944   2.77815890
H    4.06811857   2.15458918   0.59332979

