%chk=mol_0153.chk
# wB97XD/Def2SVP opt pop=full gfinput

C 4 H 5 N 1

1 2
C    1.869846  -0.018009  -0.132904
C    4.138368  -0.031540  -0.059073
C    6.840998  -0.044975   0.033297
C    8.279174  -1.465067  -1.972931
N    8.220460   1.286185  -1.956490
H   -0.140426   0.006803  -0.214238
H    7.677919   0.044409   1.903842
H    7.238388  -2.371625  -3.484617
H   10.048921  -2.354712  -1.463839
H    9.858588   2.020627  -1.254344

