%chk=mol_4877.chk
# wB97XD/Def2SVP opt freq pop=full gfinput

C 4 H 9 N 1 O 2

1 2
C    1.03004968  -0.14863995  -0.13504994
C    2.53042912   0.04247998   0.03588999
O    3.23364878  -0.74138975  -0.91650969
C    2.88975883   1.53181946  -0.03752999
C    2.92347884   2.19929910  -1.39360952
N    3.13230872   2.16063905   1.07706952
O    3.44304872   3.50576878   0.84935969
H    0.46868983   0.42571983   0.60858977
H    0.76583970  -1.20677960  -0.03729999
H    0.69948977   0.16930994  -1.12989950
H    2.82261896  -0.32553989   1.02615964
H    2.81531882  -0.62662977  -1.78564930
H    2.53777909   1.53564942  -2.17026925
H    3.95537853   2.46558905  -1.63820934
H    2.30569911   3.10153890  -1.38128948
H    3.63540864   3.83134866   1.74878943

