%chk=mol_6014.chk
# wB97XD/Def2SVP opt freq pop=full gfinput

C 4 H 8 N 2 O 1

1 2
O    0.94389963   0.09167997  -0.25078991
C    2.33267903   0.02526999   0.07061997
C    3.01449895   1.33003950  -0.31189990
C    3.57074881   1.23770952  -1.72314942
N    4.42004824   0.05243998  -1.78004932
N    3.87920856  -1.16199958  -1.51543951
C    2.91304874  -1.17941952  -0.64597976
H    0.51827979   0.64356977   0.42876983
H    2.41034913  -0.15608995   1.14816952
H    2.32236910   2.17749929  -0.23870991
H    3.84114838   1.52113938   0.38353986
H    4.16483831   2.12961936  -1.94715917
H    2.76816916   1.17259955  -2.46617913
H    4.93236828   0.01969999  -2.66418886
H    2.46003914  -2.15551901  -0.40104985

