%chk=mol_6891.chk
# wB97XD/Def2SVP opt freq pop=full gfinput

C 5 H 8 N 2

1 2
C    0.98648965   0.08987997  -0.00669000
C    2.47141910   0.00066000  -0.00059000
N    3.26522875   1.02703953  -0.00748000
N    4.60982800   0.54403985  -0.00019000
C    4.57127810  -0.75235975   0.00971000
C    5.77302790  -1.62832928   0.02003999
C    3.18802881  -1.30196953   0.01095000
H    0.66603971   1.13498950   0.00196000
H    0.58945978  -0.41631985   0.87711966
H    0.59840977  -0.39888987  -0.90415967
H    6.68491793  -1.02522957   0.01205999
H    5.75947762  -2.27249908  -0.86245966
H    5.76029778  -2.25007915   0.91850966
H    2.98565888  -1.88011932  -0.89097965
H    2.98164892  -1.86614931   0.92064965

