%chk=mol_2481.chk
# wB97XD/Def2SVP opt freq pop=full gfinput

C 6 H 10 O 1

1 2
C    0.97112966   0.03906999   0.36558986
C    2.46801901  -0.01169000   0.05362998
C    2.86494899   1.20087957  -0.79657972
O    4.19420815   1.14764953  -1.32193947
C    4.51742840  -0.04882998  -1.89263928
C    3.92039871  -1.21518946  -1.62978947
C    2.82670879  -1.34280944  -0.62441975
H    0.70541972   0.97022969   0.87592971
H    0.67456979  -0.79903966   1.00391960
H    0.37927985  -0.01579999  -0.55611980
H    3.02512884   0.04403998   0.99841958
H    2.80534911   2.10707927  -0.18161994
H    2.17282939   1.34288943  -1.63576949
H    5.35526752   0.05450998  -2.56974912
H    4.25189829  -2.11497927  -2.13782907
H    1.95394933  -1.78540933  -1.11317956
H    3.14370894  -2.05627918   0.14965995

