%chk=mol_3505.chk
# wB97XD/Def2SVP opt pop=full gfinput

C 6 H 8 O 1

1 2
O    2.721281   0.214144   2.325119
C    4.963082   0.136552   0.794044
C    4.833485   1.515749  -1.693629
C    7.198609   2.288836  -3.109809
C    8.448795  -0.164652  -3.844194
C    7.073264  -2.119385  -2.984652
C    4.775810  -1.353403  -1.621461
H    1.225525   0.646740   1.350474
H    6.754543   0.111872   1.794862
H    3.153235   2.543590  -2.222412
H    8.440310   3.424203  -1.908189
H    6.710210   3.374068  -4.801303
H   10.196981  -0.304643  -4.887040
H    7.576649  -4.084927  -3.251104
H    3.036884  -2.316237  -2.094724

