%chk=mol_7077.chk
# wB97XD/Def2SVP opt freq pop=full gfinput

C 6 H 5 N 1

1 2
C    0.99999964   0.00000000   0.00000000
C    2.19015908   0.00000000   0.00000000
C    3.59615874   0.00000000   0.00000000
C    4.29443836   1.12203956  -0.22912991
C    5.79505777   1.19374955  -0.23432992
C    6.29223776   1.64527941  -1.54314935
N    6.69716740   2.00545931  -2.56895900
H   -0.06527998   0.00093000  -0.00256000
H    4.09960842  -0.94361961   0.19130993
H    3.76400852   2.05553937  -0.41599986
H    6.23647785   0.22089992   0.01081000
H    6.11572742   1.89485931   0.54443979

