%chk=mol_5637.chk
# wB97XD/Def2SVP opt freq pop=full gfinput

C 4 H 8 N 2 O 1

1 2
N    1.90367925  -0.44822985  -1.21879947
C    2.19384933   0.13935995   0.09054996
C    3.21898890   1.24848950  -0.03885999
C    2.73608899   2.58429909  -0.65409976
N    3.33581877   3.25264883   0.50894982
C    3.42188883   2.09963918   1.22730947
O    3.53367877   1.92543936   2.41587901
H    1.19117951  -1.17100954  -1.10670960
H    2.73120904  -0.93656969  -1.56375945
H    2.56841922  -0.64492977   0.75747973
H    1.26047957   0.51737982   0.52249980
H    4.17963839   0.89666969  -0.44010985
H    1.65423930   2.74016881  -0.70844972
H    3.20987868   2.86431885  -1.59819937
H    3.01981878   4.08086824   0.99570966

