%chk=mol_2227.chk
# wB97XD/Def2SVP opt pop=full gfinput

C 5 H 8 O 2

1 2
C    1.502105   1.970342  -0.981184
O   -0.546055   0.548965   0.091444
C    1.794371  -0.757459  -0.256776
C    3.047694  -1.672351   2.114452
C    2.480152  -0.513136   4.719553
O    2.406831  -3.005723   5.864708
C    2.134672  -4.123175   3.372613
H    1.378234   2.442377  -2.968703
H    2.374649   3.405532   0.186629
H    1.909965  -2.160543  -1.740872
H    5.097593  -1.739606   1.773584
H    0.664617   0.452004   4.940141
H    3.990932   0.655074   5.507815
H    3.371120  -5.759299   3.118596
H    0.170397  -4.662333   3.008614

