%chk=mol_5085.chk
# wB97XD/Def2SVP opt freq pop=full gfinput

C 5 H 11 N 1 O 1

1 2
C    1.97321928  -0.58455980   0.58485979
N    3.43108869  -0.60179979   0.51563984
C    3.93006849   0.64363974  -0.08321997
C    5.46289825   0.68928969  -0.13149995
C    6.07882786  -0.41241983  -0.99162960
C    5.92917776   2.02924919  -0.67535979
O    5.18540812   2.92040896  -1.07381964
H    1.61796939  -1.52410948   1.01921964
H    1.52704942  -0.48486981  -0.41032985
H    1.61549938   0.23034991   1.22215950
H    3.71476865  -1.39639938  -0.05582998
H    3.57252860   1.49468935   0.51060981
H    3.52331853   0.75973970  -1.09581959
H    5.86384773   0.61323977   0.88694966
H    5.70496798  -0.36606985  -2.02067924
H    5.85996771  -1.40672946  -0.59066975
H    7.16931772  -0.31135988  -1.03545964
H    7.02442741   2.17815924  -0.67948973

