%chk=mol_0572.chk
# wB97XD/Def2SVP opt freq pop=full gfinput

C 4 H 8 N 2

1 2
N    1.24778962   1.20149958  -1.78570938
C    2.49956894   1.38038957  -1.54948950
N    3.27542877   0.46843985  -0.91347969
C    4.51972818   0.88989967  -0.29035988
C    5.68164778  -0.05872998  -0.20263992
C    5.75632763   1.13709950  -1.10676956
H    0.87666965   2.01979923  -2.28134918
H    3.02633882   2.30022907  -1.85847926
H    2.74109888  -0.29947990  -0.51766980
H    4.35550880   1.53172946   0.57207978
H    5.58697796  -1.03459966  -0.66448975
H    6.27682734  -0.04979998   0.70275974
H    6.40086746   1.95742929  -0.81423968
H    5.70979786   0.96506959  -2.17584920

