%chk=mol_6928.chk
# wB97XD/Def2SVP opt freq pop=full gfinput

C 6 H 7 N 1

1 2
C    2.65259910  -1.17700946   0.35444987
C    2.21000934   0.07378997   0.16881995
C    3.01970887   1.24445951   0.09597997
C    2.51412892   2.51266909  -0.09635996
N    3.56568885   3.39291883  -0.11482996
C    4.73732805   2.70580888   0.06297997
C    4.42893839   1.36920953   0.19669993
H    1.95400929  -2.00620937   0.39568987
H    3.70556855  -1.40877938   0.46893984
H    1.13521957   0.21244992   0.06368998
H    1.50074935   2.86937881  -0.22190993
H    3.48764873   4.39387846  -0.24028990
H    5.68697786   3.22309875   0.07930997
H    5.14939833   0.57684976   0.35001987

