%chk=mol_3914.chk
# wB97XD/Def2SVP opt freq pop=full gfinput

C 5 H 9 N 1 O 1

1 2
C    0.92481965   0.09474996   0.18392994
C    2.42470908  -0.04913998   0.04320998
C    3.28692889   1.04374957   0.70465970
C    4.07218838  -0.06832998   1.41151953
N    2.98804879  -0.95650965   1.03180957
C    2.97724891  -2.31943893   1.06312966
O    3.74749851  -3.02119875   1.70570934
H    0.41316986  -0.81477970  -0.14814994
H    0.56152982   0.92280966  -0.43350983
H    0.62542975   0.29238990   1.21919954
H    2.74165893  -0.30639988  -0.97465968
H    2.74708915   1.70644927   1.39114940
H    3.87239838   1.65644944   0.01282999
H    5.02660847  -0.33467987   0.94829959
H    4.18691826   0.05319998   2.49092913
H    2.18245935  -2.74766898   0.43092984

