%chk=mol_1818.chk
# wB97XD/Def2SVP opt freq pop=full gfinput

C 5 H 10 N 2

1 2
C    0.90620971   0.22523992   0.21534993
N    2.33464909  -0.07161997   0.16435994
C    3.07333875   0.97578967   0.03875999
N    4.45952797   1.02738965  -0.03750999
C    5.19201803  -0.24257991   0.03678998
C    5.15149832   2.23080921  -0.13936995
C    6.46879768   2.45605898  -0.19231993
H    0.37268987  -0.65109974   0.59573978
H    0.52197981   0.44499984  -0.78575969
H    0.68019974   1.06231964   0.88507968
H    2.61634898   1.98200917  -0.02500999
H    4.53741837  -1.11984956   0.01556999
H    5.77374792  -0.28855988   0.96399969
H    5.87562799  -0.34012985  -0.81412971
H    4.48964834   3.09533882  -0.17753993
H    7.19804764   1.65525937  -0.15842994
H    6.84916735   3.46963859  -0.27165991

