%chk=mol_4584.chk
# wB97XD/Def2SVP opt freq pop=full gfinput

C 4 H 8 N 2 O 1

1 2
C    0.98725963  -0.08174997  -0.18011993
C    2.47468925   0.03583999   0.00407000
C    3.15563893  -1.27687955   0.20740992
O    2.57144904  -2.35062933   0.10555996
C    3.18622875   1.18592954   0.01848999
N    2.59797907   2.42173910  -0.04956998
N    4.55318832   1.25311959   0.09417997
H    0.50719982   0.86165965  -0.45248982
H    0.51834977  -0.44210982   0.74158973
H    0.75601971  -0.78819972  -0.98532963
H    4.22266865  -1.24301946   0.47343981
H    1.61954939   2.42590928   0.22464992
H    3.11462879   3.09509873   0.51064980
H    5.02521801   0.48574981  -0.37542987
H    4.87538815   2.12983918  -0.31091988

