%chk=mol_1182.chk
# wB97XD/Def2SVP opt freq pop=full gfinput

C 6 H 13 N 1

1 2
C    1.14705956  -0.55586982  -0.05490998
C    2.64994907  -0.32993987   0.00449000
C    2.99274898   1.15920961  -0.04102999
C    4.47768831   1.37935948   0.02138999
C    5.18604803   1.97283924  -0.95326966
C    6.65975714   2.21032929  -0.90275967
N    7.29152727   1.56501937  -2.04270935
H    0.92284966  -1.62664950  -0.01953999
H    0.72584975  -0.15112995  -0.98082966
H    0.64428979  -0.07524997   0.79060972
H    3.12406898  -0.85097969  -0.83608967
H    3.04304886  -0.77931970   0.92459965
H    2.53012919   1.67335939   0.80971974
H    2.57197905   1.60687935  -0.94983965
H    4.98175812   1.03604960   0.92250967
H    4.67959833   2.32385921  -1.85040939
H    7.09896708   1.83060932   0.02618999
H    6.85100746   3.28752899  -0.94390965
H    7.14909744   0.55870980  -1.96641934
H    8.29756641   1.71139932  -1.98965931

