%chk=mol_6523.chk
# wB97XD/Def2SVP opt freq pop=full gfinput

C 5 H 3 N 1 S 1

1 2
C    0.96118963  -0.03928998  -0.00251000
C    2.16065907   0.01437999  -0.00022000
C    3.58461857   0.07955997   0.00273000
C    4.32212830   1.24296951   0.00034000
S    5.99484777   0.85693967   0.00595000
C    5.58613777  -0.81151968   0.01093000
N    4.30203867  -1.09668958   0.00870000
H   -0.10176996  -0.09482997  -0.00431000
H    3.97432828   2.26545906  -0.00415000
H    6.34866762  -1.57939935   0.01567999

