%chk=mol_2799.chk
# wB97XD/Def2SVP opt pop=full gfinput

C 6 H 10 O 1

1 2
C    2.631954  -0.356421   1.291892
C    4.579695   0.280776  -0.757119
C    5.231575  -2.098787  -2.268257
C    3.779849   2.392185  -2.520611
C    1.397490   3.034163  -3.123434
C    5.829710   3.950718  -3.668960
O    8.077275   3.567897  -3.268659
H    2.104739   1.332200   2.367241
H    3.417003  -1.728041   2.630083
H    0.910905  -1.185860   0.495033
H    6.287176   0.886905   0.253979
H    3.583185  -2.814199  -3.298517
H    5.896550  -3.604596  -1.012818
H    6.730411  -1.728854  -3.647228
H   -0.212462   2.004811  -2.377465
H    0.958847   4.586139  -4.391837
H    5.205799   5.495191  -4.923114

