%chk=mol_1125.chk
# wB97XD/Def2SVP opt pop=full gfinput

C 4 H 5 N 1 O 1

1 2
O    3.864660  -1.832713  -1.509683
C    3.526645   0.200443  -0.450662
C    5.627434   1.914160   0.407198
C    8.210690   0.804929  -0.203920
C   10.224269   2.505815   0.648459
N   11.792873   3.878153   1.337000
H    1.597518   0.892707  -0.063816
H    5.412138   2.204441   2.446477
H    5.369978   3.744568  -0.526912
H    8.386907   0.486642  -2.243899
H    8.428764  -1.042600   0.708780

