%chk=mol_1420.chk
# wB97XD/Def2SVP opt freq pop=full gfinput

C 5 H 8 N 2

1 2
C    2.14826918  -0.66081977   1.33311951
C    2.62728906  -0.17909993  -0.02919999
C    3.00429893   1.29355955  -0.01705999
N    1.94928932   2.18502927  -0.06356998
C    4.30673838   1.63645947   0.00000000
C    4.77606821   2.96180892   0.00000000
N    5.16028786   4.04679823   0.00000000
H    1.90020931  -1.72693944   1.29024947
H    1.25181961  -0.12160996   1.65857947
H    2.92318869  -0.52535981   2.09610915
H    1.84253931  -0.34844989  -0.77605969
H    3.47957873  -0.79478973  -0.34128985
H    1.07357955   1.84261930   0.32547989
H    2.16031933   3.14348888   0.21440993
H    5.07006836   0.86632967   0.02005999

