%chk=mol_6148.chk
# wB97XD/Def2SVP opt freq pop=full gfinput

C 4 H 9 N 1 O 2

1 2
O    1.39290941  -0.79267973   0.70193970
C    1.49347949   0.51489979   0.13585995
C    2.94031882   0.94613963   0.13019995
C    3.64441872   0.83862972   1.46419942
O    3.92771864  -0.52704978   1.74919927
C    3.75494862   0.71521974  -1.12540948
N    3.30257869   2.05687928  -0.77552974
H    0.45326984  -1.04097962   0.64126974
H    0.89457965   1.20193958   0.74301976
H    1.07262969   0.48295984  -0.87507963
H    3.02247882   1.24452960   2.26998925
H    4.59648848   1.38069952   1.47078943
H    3.09392881  -1.00862968   1.55929947
H    3.27678871   0.25729990  -1.98240924
H    4.81599808   0.51378983  -1.03166962
H    4.07825851   2.60648918  -0.39960986

