%chk=mol_5053.chk
# wB97XD/Def2SVP opt pop=full gfinput

C 5 H 11 N 1 O 1

1 2
C    2.248812  -0.432823  -0.851681
N    4.991182  -0.186251  -0.912001
C    5.811834   1.985233   0.591843
C    8.634858   2.083348   0.540707
O    9.778313   3.075699   2.795831
C   10.188062   0.448527   2.278556
C   12.836947  -0.225236   1.638657
H    1.682726  -2.079984  -1.965466
H    1.320919   1.231100  -1.656610
H    1.564221  -0.723708   1.079298
H    5.556324   0.055142  -2.736985
H    5.133290   1.804273   2.542702
H    5.054054   3.747043  -0.189502
H    9.406830   2.666989  -1.258369
H    9.246600  -0.943918   3.441135
H   13.819454   1.316572   0.667451
H   12.870338  -1.886589   0.406556
H   13.893833  -0.676900   3.358478

