%chk=mol_6277.chk
# wB97XD/Def2SVP opt pop=full gfinput

C 5 H 9 N 1 O 1

1 2
O    2.851975  -0.124552   2.077395
C    4.597344   0.152104   0.583906
N    5.675622   2.410686  -0.054462
C    4.857806   4.806896   0.988686
C    6.204160   6.766391  -0.631924
C    8.631853   5.413706  -1.403670
C    7.762296   2.700589  -1.800191
H    5.468981  -1.462761  -0.402852
H    5.485063   4.890290   2.959670
H    2.798514   4.976613   0.928555
H    5.075559   7.188140  -2.318448
H    6.548657   8.535931   0.377530
H    9.510180   6.224304  -3.088776
H   10.000865   5.499708   0.149704
H    7.031728   2.407303  -3.714673
H    9.237964   1.303401  -1.422000

