%chk=mol_2059.chk
# wB97XD/Def2SVP opt pop=full gfinput

C 6 H 11 N 1

1 2
N    1.480865   0.074002  -0.438643
C    4.205585  -0.183133  -0.065271
C    5.512293   2.401804  -0.102612
C    8.317120   2.155063   0.292926
C   10.048222   2.853108  -1.422132
C   12.729743   2.615343  -0.992673
C   14.463340   3.323915  -2.691272
H    0.682720  -1.678379  -0.496318
H    1.139184   0.874168  -2.157689
H    4.981583  -1.399985  -1.550993
H    4.541749  -1.124916   1.748696
H    4.744498   3.601478   1.403027
H    5.112994   3.361728  -1.896038
H    8.909888   1.383015   2.104928
H    9.443623   3.639083  -3.224081
H   13.353277   1.826212   0.800923
H   13.950658   4.125631  -4.508055
H   16.463295   3.114836  -2.285057

