%chk=mol_2784.chk
# wB97XD/Def2SVP opt pop=full gfinput

C 6 H 10 O 1

1 2
C    1.945889  -0.229186  -0.160702
C    4.760409   0.157301  -0.646815
C    5.583952  -1.100784  -3.065873
C    7.329511  -2.928924  -3.207583
C    5.348379   2.980155  -0.831272
C    7.421124   3.962586   0.856688
O    4.224898   4.398035  -2.297472
H    1.365006   0.751204   1.566848
H    1.501161  -2.238721   0.062059
H    0.788072   0.512607  -1.710958
H    5.807072  -0.620510   0.963798
H    4.687976  -0.444142  -4.801511
H    8.284011  -3.655543  -1.543453
H    7.834785  -3.749614  -5.019415
H    6.930117   3.607714   2.830035
H    7.635079   5.999162   0.582451
H    9.201946   3.031291   0.382670

