%chk=mol_1042.chk
# wB97XD/Def2SVP opt freq pop=full gfinput

C 4 H 9 N 1 O 1

1 2
C    0.95168960  -0.09427997   0.02437999
N    2.39989924   0.00982000   0.11189996
C    3.13686895  -1.24068952   0.03507999
C    3.10701895   1.20021963  -0.01208999
C    2.30543923   2.47748899  -0.04191998
O    4.33439875   1.24371958  -0.09120997
H    0.45260984   0.83538967   0.30182987
H    0.60603976  -0.88408971   0.69782972
H    0.68435973  -0.34820986  -1.00564969
H    2.72790885  -1.94436932   0.76619971
H    4.20110846  -1.10165966   0.24304990
H    3.02294898  -1.65120935  -0.97258967
H    1.61642945   2.47461891  -0.89073962
H    2.98441887   3.32748890  -0.16009994
H    1.76247931   2.60385895   0.89813972

