%chk=mol_6432.chk
# wB97XD/Def2SVP opt freq pop=full gfinput

C 4 H 5 N 1 O 1 S 1

1 2
C    1.00924957   0.00868000   0.01917999
C    2.50473905   0.00073000   0.07141998
C    3.25159860   1.11467957   0.00553000
C    4.67927837   0.76121968   0.00366000
O    5.60301781   1.55204952  -0.04943998
S    4.81534815  -0.99527967   0.04280999
N    3.16218877  -1.21170962   0.19487993
H    0.60950977   1.02687955  -0.03142999
H    0.59393978  -0.47058982   0.91160965
H    0.65654975  -0.53586978  -0.86267972
H    2.91926885   2.13422918  -0.08130997
H    2.70227909  -2.01376915  -0.23229991

