%chk=mol_4314.chk
# wB97XD/Def2SVP opt freq pop=full gfinput

C 5 H 9 N 1 O 1

1 2
C    0.76068974  -0.05138998   0.07802998
C    2.24764895  -0.05235998   0.23030992
C    3.04023886   0.95049965  -0.17964993
C    4.53418827   0.96110964  -0.03555999
C    5.17297792   1.03588963  -1.41200948
N    5.57959795  -0.15924993  -1.93344927
O    5.30515766   2.07722926  -2.04649925
H    0.44652984  -0.91876966  -0.51072979
H    0.39595985   0.85080969  -0.42317984
H    0.28546989  -0.11219995   1.06176960
H    2.67941904  -0.92938966   0.70718974
H    2.60258913   1.82982934  -0.65154982
H    4.90014791   0.07531998   0.49595982
H    4.85227823   1.83687937   0.54026979
H    5.22164822  -1.03269958  -1.57184935
H    5.90952778  -0.14244995  -2.88963890

