%chk=mol_3649.chk
# wB97XD/Def2SVP opt pop=full gfinput

C 5 H 10 O 2

1 2
O    3.630769  -0.414833  -2.525619
C    4.479520   0.243246  -0.059980
C    5.873382   2.766786  -0.096357
C    4.262220   4.968506  -0.996434
C    5.586011   7.174307   0.231605
C    6.338255   6.080043   2.766597
O    6.723135   3.418779   2.403033
H    2.816032  -2.056891  -2.382850
H    5.731861  -1.249657   0.638104
H    2.848970   0.322803   1.213412
H    7.549985   2.611583  -1.305442
H    2.328313   4.823110  -0.263768
H    4.168603   5.114336  -3.055536
H    7.279433   7.670021  -0.854969
H    4.409166   8.863704   0.399413
H    8.061440   6.937109   3.519010
H    4.824565   6.310608   4.158380

