%chk=mol_5051.chk
# wB97XD/Def2SVP opt freq pop=full gfinput

C 5 H 11 N 1 O 1

1 2
C    1.46625948  -0.07487997  -0.77822971
N    2.87789893   0.24955991  -0.94853961
C    3.48777866   0.61940980   0.33064988
C    4.97089815   0.88379967   0.13781995
C    5.78036785   1.08454955   1.42434943
O    6.76336765   0.10872996   1.00098956
C    5.87960768  -0.33634987  -0.06022998
H    1.03450954  -0.34340990  -1.74777925
H    0.90329969   0.77756971  -0.38350987
H    1.33419955  -0.93253964  -0.11045996
H    2.95751905   1.02777958  -1.60318947
H    3.33988857  -0.18420993   1.06281960
H    3.00523877   1.52141953   0.72532976
H    5.16628838   1.67965937  -0.59365976
H    5.29934788   0.77600974   2.35807896
H    6.21990776   2.07848930   1.54698944
H    6.39340734  -0.38205984  -1.02440965
H    5.44605827  -1.31327951   0.17598994

