%chk=mol_5712.chk
# wB97XD/Def2SVP opt pop=full gfinput

C 5 H 9 N 1 O 1

1 2
N    1.799473   0.001058  -0.016422
C    4.566731   0.013908   0.043407
C    5.626451   2.707637   0.000000
C    8.355216   2.707637   0.000000
C   10.604293   2.707637   0.000000
C   13.333057   2.707637   0.000000
O   14.258097   5.229212  -0.011376
H    1.175259  -1.822981  -0.004535
H    1.184707   0.765075  -1.674978
H    5.278893  -1.067450  -1.575843
H    5.197559  -0.968201   1.755537
H    4.921376   3.756133   1.642985
H    4.930598   3.700348  -1.681516
H   14.086019   1.739625  -1.664754
H   14.085452   1.762075   1.676962
H   13.317996   6.127947  -1.308994

