%chk=mol_3459.chk
# wB97XD/Def2SVP opt freq pop=full gfinput

C 5 H 10 O 2

1 2
C    1.45693946   0.18375993   2.52940893
O    1.79815936   0.24062991   1.15193951
C    2.72267914   1.28070951   0.81524968
C    2.17168927   2.66912913   1.12420952
O    3.99657845   1.14648950   1.46269953
C    4.72544861   0.09245996   0.98288965
C    6.05837774   0.08794997   1.01398969
H    0.90552968  -0.74468976   2.70252895
H    0.80073971   1.01648962   2.79727912
H    2.34576917   0.17891993   3.16637874
H    2.87025905   1.22761965  -0.27171990
H    2.11944914   2.84584904   2.20394897
H    1.16644955   2.79562902   0.71110976
H    2.83122897   3.44165874   0.71511972
H    4.14093828  -0.73854971   0.60711980
H    6.60877752   0.93373966   1.41130948
H    6.62149715  -0.76087970   0.64327973

