%chk=mol_0821.chk
# wB97XD/Def2SVP opt pop=full gfinput

C 5 H 8 O 1

1 2
C    2.193141  -0.531788  -0.339640
O    4.613577   0.052572   0.661518
C    5.468886   2.529493   0.000000
C    4.458355   4.445694   1.903767
C    8.197651   2.529493   0.000000
C   10.446728   2.529493   0.000000
H    1.701887  -2.453847   0.238257
H    2.225644  -0.460564  -2.406056
H    0.754964   0.756004   0.394934
H    4.798203   3.023751  -1.898854
H    4.998723   3.930990   3.836957
H    2.391278   4.516124   1.864952
H    5.174127   6.349026   1.515352
H   12.459909   2.510369   0.008258

