%chk=mol_5945.chk
# wB97XD/Def2SVP opt freq pop=full gfinput

C 5 H 9 N 1 O 1

1 2
O    0.94325966  -0.07853997  -0.75307977
C    2.27129912  -0.00821000  -0.19526993
C    3.32747865  -0.65254980  -1.05474961
C    3.22790885   0.84271967  -0.98746961
C    2.29745913  -0.06842998   1.33588946
C    1.48928940   0.87094969   2.19861913
N    1.08009958  -0.51686978   2.03429937
H    0.33778986  -0.39901984  -0.05496998
H    3.00496888  -1.14334953  -1.96562922
H    4.16731834  -1.12991953  -0.56580979
H    3.99891853   1.38086951  -0.45062983
H    2.83722878   1.36667943  -1.85184932
H    3.23202896  -0.41866985   1.76981926
H    0.87455964   1.61484945   1.70606935
H    1.88311934   1.15563953   3.16588879
H    1.33165956  -1.07370961   2.85369897

