%chk=mol_4224.chk
# wB97XD/Def2SVP opt freq pop=full gfinput

C 4 H 7 N 1 O 2

1 2
C    0.99031967  -0.03028999   0.04990998
C    2.47984910   0.05456998  -0.22491992
O    2.90918899  -1.13261950  -0.89462966
N    3.40292883  -0.71402973  -2.14610910
C    3.27911878   0.56966978  -2.14763927
C    3.64367867   1.46593940  -3.27122879
O    2.74975896   1.16181958  -1.06333959
H    0.63574976   0.87189972   0.55774981
H    0.75344974  -0.90763962   0.65925980
H    0.42869985  -0.11990995  -0.88698965
H    3.04404879   0.15881994   0.70799977
H    3.66090870   2.50803900  -2.94108891
H    2.90855885   1.35613942  -4.07279825
H    4.63457823   1.19900954  -3.64765859

