%chk=mol_6105.chk
# wB97XD/Def2SVP opt pop=full gfinput

C 5 H 7 N 1 O 1

1 2
O    1.857657  -0.053101   0.453119
C    4.145738  -0.014853   0.114574
C    5.580475   2.349553   0.001871
C    8.056753   2.549959  -0.416817
C    8.806672   5.255064  -0.389983
N    6.476110   6.702140   0.091444
C    4.390231   4.854839   0.354418
H    5.253552  -1.761641  -0.137402
H    9.361212   1.012553  -0.725579
H   10.184207   5.622030   1.107909
H    9.636886   5.800344  -2.205084
H    6.110770   7.824827  -1.429049
H    2.939280   5.208482  -1.078315
H    3.541271   5.034249   2.231880

