%chk=mol_4585.chk
# wB97XD/Def2SVP opt freq pop=full gfinput

C 4 H 8 N 2 O 1

1 2
C    1.08315957  -0.10540996  -0.18472993
C    2.57527900   0.20115992  -0.25838992
C    3.27069879  -0.90527964  -1.01995957
O    4.06413841  -0.73009974  -1.94289923
C    2.77294898   1.60383940  -0.81034964
N    3.04483891   1.81043935  -2.12720942
N    2.65587878   2.64568901  -0.04885998
H    0.56090981   0.62918979   0.43713984
H    0.90421969  -1.09769952   0.24268991
H    0.62504977  -0.08442997  -1.17979956
H    2.99117899   0.17864993   0.75656974
H    3.06662869  -1.92823935  -0.65782976
H    3.61137867   1.08360958  -2.57037902
H    3.39954877   2.74500918  -2.30183911
H    2.42699909   2.37826896   0.91317964

