%chk=mol_4278.chk
# wB97XD/Def2SVP opt pop=full gfinput

C 5 H 7 N 1 O 1

1 2
C    1.844581  -0.190144  -0.004687
C    4.695762   0.145131   0.021770
C    5.407017   2.856056  -0.000265
N    5.856960   4.370389   1.925650
C    6.414600   6.639628   0.805307
C    6.279522   6.407721  -1.772336
O    5.631913   3.978762  -2.320338
H    1.357844  -2.200038   0.024264
H    1.008112   0.649990  -1.701302
H    0.970733   0.707400   1.643136
H    5.526107  -0.813829  -1.615300
H    5.481094  -0.754416   1.714019
H    6.877696   8.297976   1.904220
H    6.559239   7.660402  -3.358119

