%chk=mol_4687.chk
# wB97XD/Def2SVP opt freq pop=full gfinput

C 5 H 13 N 1 O 1

1 2
C    0.97001964  -0.27821988   0.20801993
C    2.46109915  -0.13304995   0.50038981
N    2.99227881   1.22031951   0.24019991
C    2.32786918   2.22503924   1.08070958
C    4.45617819   1.27506948   0.49427983
C    5.27023840   0.50543982  -0.55663979
O    4.86812830   0.90008962  -1.86722922
H    0.68185973  -1.33313954   0.26171991
H    0.72441971   0.08602997  -0.79460967
H    0.35777986   0.26221991   0.93733966
H    2.97116876  -0.85326970  -0.14893995
H    2.65717888  -0.43808985   1.53589940
H    1.26587963   2.31347919   0.82876968
H    2.75444913   3.21927881   0.90668970
H    2.41884899   1.99403918   2.14796901
H    4.70516825   0.92392963   1.50263953
H    4.77519798   2.32337928   0.42329985
H    5.13779783  -0.57664979  -0.46498984
H    6.33742762   0.72304976  -0.44623983
H    3.91004848   1.08829951  -1.78634942

