%chk=mol_1706.chk
# wB97XD/Def2SVP opt pop=full gfinput

C 6 H 13 N 1

1 2
C    2.098711   4.256741  -0.544354
N    4.822278   4.179658  -0.933506
C    5.995440   2.243256   0.656113
C    8.832901   2.171862   0.178390
C   10.442797   4.378382   1.261487
C   12.502334   2.404204   1.851573
C   10.378470   0.411356   1.943753
H    1.266778   5.698299  -1.771486
H    1.625486   4.737789   1.414139
H    1.220026   2.446609  -1.025913
H    5.566188   5.902749  -0.496412
H    5.193572   0.387432   0.201861
H    5.611126   2.625982   2.656520
H    9.261169   1.799983  -1.823038
H    9.645691   5.274263   2.951242
H   10.975378   5.846813  -0.090064
H   13.849538   2.115907   0.305380
H   13.544479   2.690063   3.611134
H   10.857440  -1.441502   1.166906
H    9.565434   0.156980   3.833782

