%chk=mol_0747.chk
# wB97XD/Def2SVP opt pop=full gfinput

C 5 H 12 O 1

1 2
C    1.996590  -0.319666  -0.104086
C    4.864136  -0.134322   0.056106
C    5.794505   2.608351   0.020504
O    4.777568   3.937226   2.131536
C    8.687544   2.730125   0.097075
C    9.673848   5.431092  -0.034506
H    1.412192  -2.303727  -0.138120
H    1.291496   0.586212  -1.824871
H    1.091563   0.579522   1.523781
H    5.696088  -1.179151  -1.527371
H    5.473989  -1.063935   1.805784
H    5.107835   3.549586  -1.691475
H    5.377839   3.112152   3.659303
H    9.479188   1.646008  -1.481489
H    9.383662   1.873380   1.852593
H    9.032683   6.367905  -1.762812
H   11.741983   5.433832  -0.032333
H    9.036292   6.544783   1.586406

