%chk=mol_5356.chk
# wB97XD/Def2SVP opt pop=full gfinput

C 4 H 8 N 2 O 1

1 2
C    3.690616  -0.597512  -2.280843
O    6.043684   0.364642  -1.413742
C    6.088546   2.801425  -0.484110
C    4.107452   4.373544  -0.271573
C    8.668174   3.735271   0.320630
N    9.107535   5.968946   1.531547
N   10.665275   2.362573  -0.094146
H    4.007599  -2.516983  -2.980325
H    2.956080   0.535473  -3.848673
H    2.319658  -0.702317  -0.734858
H    2.210054   3.840849  -0.821294
H    4.318478   6.290256   0.422694
H    7.849015   6.408118   2.900843
H   10.913697   5.999352   2.180933
H   10.080857   0.740073  -0.999608

