%chk=mol_3223.chk
# wB97XD/Def2SVP opt freq pop=full gfinput

C 6 H 10 O 1

1 2
C    0.77681971   1.95957923   0.67348975
C    2.06578922   1.18020964   0.50500983
O    3.08550882   2.08134913   0.07903997
C    4.33628845   1.41379941  -0.10334996
C    5.37875795   2.43217921  -0.55406982
C    6.69336748   1.80552936  -0.75784969
C    7.76761723   1.29764950  -0.92490965
H   -0.03537998   1.30435944   1.00049961
H    0.48859981   2.43656921  -0.26910990
H    0.90361965   2.76003885   1.40987945
H    1.92989922   0.39370984  -0.24536991
H    2.35133910   0.72245973   1.45844948
H    4.22226810   0.62631977  -0.85838968
H    4.64240837   0.94870967   0.84174973
H    5.45330811   3.23344874   0.19069993
H    5.04244804   2.91496873  -1.47922945
H    8.72357750   0.84955966  -1.07416964

