%chk=mol_5164.chk
# wB97XD/Def2SVP opt pop=full gfinput

C 4 H 10 N 2 O 1

1 2
C    2.039940  -0.341851   0.722045
N    4.589861  -0.340113  -0.375999
C    5.424365  -2.963620  -0.926911
C    3.870499  -4.319839  -2.969686
O    3.768265  -2.858759  -5.229742
N    4.928349   1.383053  -2.257240
C    7.114535   2.471970  -2.152738
H    1.599105   1.538785   1.470056
H    1.902765  -1.667362   2.306505
H    0.591295  -0.813187  -0.679640
H    5.420717  -4.083925   0.816116
H    7.399676  -2.879527  -1.552429
H    1.935779  -4.682042  -2.336571
H    4.736107  -6.141591  -3.426811
H    3.760555  -1.091600  -4.647101
H    7.618620   3.903702  -3.575551
H    8.544435   2.053887  -0.691961

