%chk=mol_6338.chk
# wB97XD/Def2SVP opt freq pop=full gfinput

C 4 H 7 N 1 O 2

1 2
O    1.24836957   0.05520998   0.61612982
N    2.30491924   0.07183997  -0.30476990
C    2.89788914   1.21923959  -0.30364990
C    2.58734894   2.42278910   0.52881980
C    3.29907894   3.50724864  -0.24020991
C    4.45775843   2.76529908  -0.85761970
O    3.96819854   1.44802940  -1.11294949
H    0.89094967  -0.84546971   0.49979982
H    3.01231909   2.28412914   1.52778947
H    1.51427937   2.61341906   0.59950972
H    2.64009905   3.88683867  -1.03101957
H    3.60876846   4.35340834   0.37779987
H    4.78489828   3.22542882  -1.79506934
H    5.31450796   2.69458914  -0.17867993

