%chk=mol_0191.chk
# wB97XD/Def2SVP opt freq pop=full gfinput

C 4 H 4 O 1

1 2
O   -0.35665986  -1.08495963  -0.00427000
C   -1.13860965   0.02519999  -0.00218000
C   -0.36176986   1.15961957   0.00108000
C    0.98321962   0.71705973   0.00098000
C    0.93255961  -0.65820974  -0.00233000
H   -2.20464921  -0.15432994  -0.00336000
H   -0.72138971   2.17935920   0.00326000
H    1.87879932   1.32130957   0.00306000
H    1.68237936  -1.43630946  -0.00365000

