%chk=mol_3545.chk
# wB97XD/Def2SVP opt pop=full gfinput

C 6 H 10 O 1

1 2
O    2.084425   0.291547   0.360220
C    4.717040  -0.048887  -0.028497
C    5.252097  -2.783774  -0.821899
C    4.931070  -2.788121  -3.704865
C    5.784376  -0.197382  -4.495677
C    3.993313   2.005264  -4.542070
C    5.597199   1.511932  -2.236434
H    1.801929   2.102472   0.477307
H    5.711149   0.432124   1.719764
H    4.010736  -4.163369   0.089101
H    7.220417  -3.255790  -0.371652
H    6.069309  -4.275902  -4.579619
H    2.949730  -3.093255  -4.222574
H    7.488493  -0.163329  -5.619895
H    4.481429   3.607563  -5.722526
H    1.981718   1.624050  -4.457996
H    7.178446   2.734736  -1.814836

