%chk=mol_3372.chk
# wB97XD/Def2SVP opt pop=full gfinput

C 6 H 8 O 1

1 2
C    2.006549  -0.255264  -0.403702
O    4.687541  -0.117824  -0.375356
C    5.785397   2.207710   0.000000
C    4.562895   4.402608   0.353247
C    8.442351   2.207710   0.000000
C   10.691428   2.207710   0.000000
C   13.420193   2.207710   0.000000
H    1.473419  -2.227364  -0.722423
H    1.221462   0.872335  -1.951142
H    1.213601   0.330173   1.416047
H    2.524428   4.556489   0.377700
H    5.605079   6.149112   0.634721
H   14.164744   4.136875  -0.021940
H   14.164820   1.224146  -1.659728
H   14.164820   1.262148   1.681667

