%chk=mol_5991.chk
# wB97XD/Def2SVP opt freq pop=full gfinput

C 5 H 5 N 1 O 1

1 2
O    1.19889951  -0.21571992   0.43685985
C    2.37144899  -0.04375999   0.21827991
C    3.32672882   1.13744950  -0.00795000
C    4.26000834   0.07065997  -0.61905974
N    3.36280870  -0.94000965  -0.04151998
C    4.28495836  -0.02669999  -2.06125927
C    4.29503822  -0.10317996  -3.25977874
H    3.67992878   1.59722936   0.91960967
H    2.94557881   1.90321922  -0.68774974
H    5.25215816   0.03757999  -0.15569995
H    3.08662868  -1.82898939  -0.43531984
H    4.29672861  -0.16872995  -4.32386827

