%chk=mol_0904.chk
# wB97XD/Def2SVP opt freq pop=full gfinput

C 6 H 12

1 2
C    0.94354969  -0.14254995  -0.00114000
C    2.44652891  -0.01062000  -0.00347000
C    3.14970875  -1.34873950  -0.00854000
C    3.13046885   1.15967953  -0.00111000
C    2.50378895   2.53353906   0.00217000
C    4.64169836   1.23454952  -0.00241000
H    0.40560985   0.80529970   0.01161000
H    0.62062973  -0.70542979   0.88157970
H    0.61632979  -0.68619972  -0.89424968
H    2.43463922  -2.17893934  -0.00376000
H    3.77643871  -1.46198940   0.88212967
H    3.76422858  -1.46085942  -0.90782964
H    1.41373956   2.53419900  -0.01021000
H    2.83369899   3.09610891  -0.87809968
H    2.81583905   3.08356881   0.89669967
H    5.13301802   0.25891989  -0.00158000
H    4.99081802   1.77377939   0.88482964
H    4.98935795   1.77156937  -0.89157963

