%chk=mol_2975.chk
# wB97XD/Def2SVP opt freq pop=full gfinput

C 5 H 10 O 2

1 2
C    1.15618956   0.43019986  -1.59303939
C    2.61899900   0.49748981  -1.29925942
C    3.15136886   1.16252959  -0.25879991
C    4.61753845   1.25609946   0.09058997
O    5.39727783   0.49112982  -0.82693970
C    5.11824799   2.71143889   0.07803997
O    5.11840773   3.22568870  -1.25998950
H    0.82105970  -0.61124974  -1.58052945
H    0.95741963   0.84412968  -2.58605909
H    0.56082976   0.98977965  -0.86440969
H    3.26765871  -0.04930998  -1.98103929
H    2.48323917   1.68214929   0.42563984
H    4.76241779   0.82916969   1.08869958
H    5.62816811   1.10574949  -1.55024946
H    6.15552759   2.75041914   0.42581984
H    4.51116800   3.36549878   0.71205968
H    4.19395876   3.20915890  -1.56956947

