%chk=mol_6641.chk
# wB97XD/Def2SVP opt pop=full gfinput

C 4 H 5 N 1 O 1 S 1

1 2
N    1.841406  -0.049624  -0.009449
C    4.382143   0.055993  -0.005008
C    5.723300   2.288496  -0.006727
O    4.827759   4.639372  -0.010979
S    8.905277   1.753231  -0.001417
C    8.485721  -1.454352   0.003553
C    5.963579  -2.107460   0.001247
H    0.797219   1.564863  -0.000378
H    0.835618  -1.678549   0.009675
H    6.329845   5.698053  -0.012075
H   10.101758  -2.704179   0.007653
H    5.308184  -4.045620   0.003798

