%chk=mol_2908.chk
# wB97XD/Def2SVP opt pop=full gfinput

C 6 H 8 O 1

1 2
C    0.747821   0.806422  -0.153200
C    3.445538   0.114045   0.294722
C    5.384793   1.731027   0.052553
C    8.019260   0.872184   0.536682
O    8.539540  -1.296031   1.157155
C    9.971933   2.868056   0.203788
C   12.418997   2.339405   0.571245
H   -0.042500  -0.375961  -1.654247
H    0.531278   2.786741  -0.710254
H   -0.354343   0.495959   1.568605
H    3.805077  -1.836058   0.849545
H    5.083137   3.679391  -0.495864
H    9.376556   4.748617  -0.339357
H   13.040414   0.458580   1.116753
H   13.857021   3.779925   0.333612

