%chk=mol_1977.chk
# wB97XD/Def2SVP opt pop=full gfinput

C 6 H 9 N 1

1 2
N    4.836452  -1.147990  -2.495553
C    4.363226   0.114272  -0.101044
C    5.429202   2.709981  -0.070071
C    4.176295   4.902063   0.244058
C    5.947082   6.971124   0.231548
C    8.293309   6.069498  -0.075513
C    8.212749   3.242052  -0.310671
H    3.963663  -2.861574  -2.482420
H    6.716144  -1.510553  -2.667424
H    5.180835  -0.994846   1.444903
H    2.318089   0.179656   0.220153
H    2.163982   5.124332   0.482825
H    5.421265   8.931337   0.440646
H    9.995857   7.188859  -0.160816
H    8.953750   2.641327  -2.144480
H    9.286379   2.345037   1.211655

