%chk=mol_5434.chk
# wB97XD/Def2SVP opt freq pop=full gfinput

C 4 H 7 N 1 O 2

1 2
C    2.73487902  -0.93561965  -0.06354997
O    4.03663874  -0.36144987  -0.08258997
N    3.90761852   1.03405964  -0.01648000
C    5.08699846   1.55649948  -0.04586998
C    5.18667793   3.02133894   0.00717000
C    5.14707851   3.73799872   1.33007944
O    6.38203764   3.50654864   0.64175975
H    2.83572888  -2.02249932  -0.12204996
H    2.15488935  -0.58829981  -0.92406964
H    2.22094917  -0.67815977   0.86753964
H    6.01658773   0.96586961  -0.11362995
H    4.83923817   3.55210853  -0.87008965
H    4.95199776   3.16248894   2.22664928
H    4.76562834   4.75087833   1.35094953

