%chk=mol_0876.chk
# wB97XD/Def2SVP opt freq pop=full gfinput

C 4 H 8 O 2

1 2
O    1.95908928  -0.34575987  -1.26454949
C    2.37894917   0.11458996   0.01684999
C    3.19552898   1.38592947  -0.15290993
C    2.44661903   2.64492893  -0.60861981
C    3.04173875   3.28443885   0.64079976
O    3.49045873   1.99893928   1.13656950
H    1.46905947  -1.17321944  -1.11740959
H    2.98276901  -0.66847974   0.48544982
H    1.48989940   0.28934988   0.63117975
H    4.12874842   1.20898962  -0.70279974
H    1.35525942   2.57264900  -0.60050982
H    2.78467894   3.07094884  -1.55619943
H    3.88632870   3.95846868   0.46916983
H    2.32038903   3.75161862   1.31628954

