%chk=mol_1642.chk
# wB97XD/Def2SVP opt freq pop=full gfinput

C 5 H 8 N 2

1 2
C    0.99138963   0.01312000  -0.00424000
N    2.43568897  -0.01489999   0.00080000
C    3.23358870   1.10325968  -0.00125000
C    4.54628801   0.68778974   0.00751000
C    4.53877831  -0.72788972   0.01549999
C    3.22480893  -1.13996959   0.01167999
N    2.71903896  -2.38480902   0.02022999
H    0.64301974   1.04926956   0.00407000
H    0.63081974  -0.50338978   0.88913965
H    0.63877976  -0.48673981  -0.91019970
H    2.80788898   2.09784913  -0.00738000
H    5.41497803   1.33287942   0.00947000
H    5.40380812  -1.37626946   0.02474999
H    1.73032928  -2.59760904  -0.04892998
H    3.32706857  -3.19798899  -0.02242999

