%chk=mol_0292.chk
# wB97XD/Def2SVP opt pop=full gfinput

C 5 H 9 N 1

1 2
C    1.767933   0.018557  -0.346557
C    4.538555   0.070373   0.140596
N    6.238269  -1.446718  -1.403141
C    6.326595   1.298998  -1.715512
C    8.551653   2.620389  -0.746555
C   10.945483   2.249946  -1.484021
H    0.880764   1.714624   0.437736
H    0.913078  -1.630966   0.563384
H    1.324396  -0.058355  -2.366901
H    4.978333   0.137383   2.140039
H    5.321185  -2.256805  -2.892453
H    5.566377   2.036067  -3.471559
H    8.203094   4.047529   0.692207
H   11.405479   0.839322  -2.900578
H   12.484627   3.321005  -0.657870

