%chk=mol_3149.chk
# wB97XD/Def2SVP opt freq pop=full gfinput

C 5 H 8 O 2

1 2
C    1.20290959   0.03932999   1.14738965
C    2.04050922   0.33190989  -0.07211997
O    1.76326931  -0.21420993  -1.14883959
C    3.22486877   1.32520950   0.09007996
C    3.14108896   2.66112900  -0.65933979
C    3.48928857   3.28770876   0.68518978
O    3.27773857   2.03064919   1.37060952
H    1.84008932  -0.35264987   1.94408917
H    0.44517985  -0.71170974   0.90449965
H    0.70082974   0.95312959   1.47492945
H    4.18188858   0.81058973  -0.07238998
H    2.14701915   2.92175889  -1.03395963
H    3.88421869   2.80234885  -1.44792950
H    4.52328825   3.62831855   0.79304969
H    2.80087900   4.06247854   1.03253961

