%chk=mol_5087.chk
# wB97XD/Def2SVP opt freq pop=full gfinput

C 5 H 7 N 1 O 1

1 2
C    1.01759958  -0.02823999  -0.02355999
N    2.47331905   0.00929000  -0.04281998
C    2.96069884   1.38567948   0.00000000
C    4.40469837   1.38567948   0.00000000
C    5.59485769   1.38567948   0.00000000
C    7.03522730   1.37625945   0.00608000
O    7.67199707   2.30704904  -0.46706983
H    0.67979974  -1.06868958  -0.05523998
H    0.59009981   0.49076983  -0.88762963
H    0.62177974   0.41794983   0.89451969
H    2.80779886  -0.42945984  -0.89998966
H    2.59507895   1.88521934   0.90468967
H    2.58753896   1.94842935  -0.86368966
H    7.50583696   0.48853981   0.45693985

