%chk=mol_1822.chk
# wB97XD/Def2SVP opt pop=full gfinput

C 5 H 10 N 2

1 2
C    1.347602   3.859577  -0.534018
N    4.048115   4.413777  -0.423374
C    5.390916   2.497953   0.228184
N    7.957788   2.467189   0.465874
C    9.484006   4.501725  -0.527498
C   12.191738   3.843722  -0.016025
C   13.810043   2.979342  -1.759732
H    0.381441   5.402443  -1.516241
H    0.548323   3.716184   1.368124
H    0.954312   2.116418  -1.581852
H    4.550687   0.637915   0.670645
H    8.786168   0.742058   0.384181
H    9.024822   6.294791   0.402909
H    9.148448   4.729512  -2.560107
H   12.846925   4.131905   1.910135
H   13.233979   2.673717  -3.706887
H   15.755913   2.550714  -1.270198

