%chk=mol_3160.chk
# wB97XD/Def2SVP opt pop=full gfinput

C 6 H 10 O 1

1 2
C    4.184477  -0.050323  -0.801754
C    4.143659   2.453035  -0.426568
O    6.117743   4.082999  -0.102707
C    8.609346   3.061697  -0.270023
C   10.459634   5.181365   0.072943
C   11.752642   5.603567   2.576452
C   13.240158   4.622610   0.362525
H    2.420456  -1.074971  -1.023702
H    5.910383  -1.143606  -0.891913
H    2.384815   3.501115  -0.329152
H    8.899684   2.225247  -2.144801
H    8.885152   1.610481   1.185274
H    9.947783   6.823196  -1.040937
H   11.362753   4.313111   4.117713
H   12.071098   7.537116   3.170885
H   14.565196   5.897722  -0.542125
H   13.853261   2.669352   0.404401

