%chk=mol_5979.chk
# wB97XD/Def2SVP opt freq pop=full gfinput

C 5 H 5 N 1 O 1

1 2
O    0.98543960  -0.07095998   0.09724997
C    2.34308910  -0.03080999   0.00618000
C    3.03613877   1.16912961  -0.07752997
C    4.42589855   1.13723958  -0.16880994
C    5.06117821  -0.09638996  -0.17229994
N    4.41045809  -1.27714956  -0.09180997
C    3.06074882  -1.21670949  -0.00407000
H    0.64477974   0.83882970   0.08932997
H    2.52107906   2.12364912  -0.07326997
H    5.00309801   2.05256915  -0.23597991
H    6.14289761  -0.16891994  -0.24198991
H    2.55435896  -2.17470908   0.05975998

