%chk=mol_1511.chk
# wB97XD/Def2SVP opt pop=full gfinput

C 6 H 11 N 1

1 2
C    1.827762  -0.234931   0.029688
C    4.717286  -0.087362  -0.043275
N    5.595120  -1.480090  -2.289328
C    5.718047   2.682504  -0.033675
C    4.699182   4.225239   2.195711
C    8.518602   2.741426   0.047640
C   10.786991   2.798306   0.108810
H    1.084419   0.496903   1.815498
H    1.176543  -2.195654  -0.122681
H    0.975798   0.842062  -1.519680
H    5.458625  -1.078410   1.620875
H    4.954144  -0.622721  -3.889340
H    4.865081  -3.261044  -2.286890
H    5.103205   3.621736  -1.779839
H    5.107514   3.298196   4.002100
H    2.654460   4.499117   2.053679
H    5.561521   6.108445   2.251325
H   12.799285   2.830129   0.153597

