%chk=mol_6525.chk
# wB97XD/Def2SVP opt pop=full gfinput

C 4 H 4 N 2 S 1

1 2
C    4.982301  -2.146219   0.752980
C    4.090312   0.177313   0.278451
C    5.577640   2.423593   0.165861
C    4.617905   4.801454  -0.326658
S    7.124835   6.863089  -0.261765
N    9.217517   4.580715   0.383577
N    8.163617   2.319072   0.562288
H    3.725444  -3.765374   0.806913
H    6.977719  -2.487673   1.097383
H    2.070214   0.369971  -0.047621
H    2.706900   5.404447  -0.697233

