%chk=mol_5785.chk
# wB97XD/Def2SVP opt freq pop=full gfinput

C 5 H 11 N 1 O 1

1 2
N    0.66893977  -0.18122992  -0.49996981
C    2.14128923  -0.26917988  -0.37586987
C    2.62891912  -1.44001949  -1.25123954
O    2.11694932  -1.30612957  -2.57616901
C    2.80752897   1.05482960  -0.81481969
C    2.51005912   2.20129895   0.11957996
C    1.91361928   3.33977890  -0.25888991
H    0.34747985   0.64788979   0.00401000
H    0.24482991  -0.97932959  -0.02596999
H    2.40161896  -0.47546983   0.66951972
H    2.27108908  -2.39469910  -0.85082966
H    3.72131872  -1.47832954  -1.30098951
H    1.22587955  -0.91608965  -2.45129895
H    2.50949907   1.30755949  -1.84046924
H    3.89648843   0.92007965  -0.83289969
H    2.82174873   2.08769917   1.15536964
H    1.59600937   3.50211859  -1.28423953
H    1.73532939   4.13938856   0.45358983

