%chk=mol_0895.chk
# wB97XD/Def2SVP opt freq pop=full gfinput

C 5 H 8 O 1

1 2
O    1.80922925  -0.60858977  -1.12640953
C    2.71145892  -0.35556984  -0.06230998
C    2.86246896   1.12205958   0.06239998
C    4.03993845   1.76457942   0.02252999
C    4.15184832   3.19801879   0.14408995
C    5.32329798   3.84337854   0.10569996
H    1.75912929  -1.57340944  -1.22700953
H    3.66193843  -0.85348970  -0.27840990
H    2.29249907  -0.76981974   0.85965967
H    1.93756926   1.67945933   0.18873994
H    4.95997810   1.19977951  -0.11180996
H    3.23555875   3.77169847   0.26885989
H    6.26722765   3.32284880  -0.02033999
H    5.35869789   4.92437840   0.19834992

