%chk=mol_3982.chk
# wB97XD/Def2SVP opt freq pop=full gfinput

C 5 H 9 N 1 O 1

1 2
C    0.94394970   0.05418998  -0.01865999
C    2.45781898   0.02125999   0.01540999
C    3.15396905   1.00129962   0.97985965
N    4.12372828  -0.06492998   1.31522954
C    3.11615896  -1.08243954   0.88122964
C    3.77082849  -2.29191899   0.14906995
O    4.60345840  -2.24068928  -0.75772971
H    0.55413979  -0.79449970  -0.58960980
H    0.58983976   0.97283965  -0.49755982
H    0.51418978   0.01053000   0.98750961
H    2.87289882   0.07340997  -1.00151968
H    2.54964900   1.31832957   1.83810937
H    3.59234858   1.88961923   0.51562983
H    4.94555807  -0.06136997   0.70223975
H    2.48752904  -1.41647947   1.71823943
H    3.43047881  -3.27683878   0.51428980

