%chk=mol_3162.chk
# wB97XD/Def2SVP opt pop=full gfinput

C 6 H 12 O 1

1 2
C    2.209959  -0.817817  -0.417044
C    5.033796  -0.574326  -0.923509
O    5.378539   0.000945  -3.537416
C    6.225514   1.487139   0.732420
C    9.045703   1.603999   0.414757
C   10.691919   2.455680   2.576679
C   10.739748  -0.260159   1.740721
H    1.836795  -1.299716   1.558835
H    1.387172  -2.286342  -1.621366
H    1.220725   0.943691  -0.868877
H    5.950578  -2.394170  -0.567957
H    4.646175   1.657687  -3.853813
H    5.745580   1.144513   2.719713
H    5.452540   3.340544   0.220248
H    9.583405   2.189682  -1.475725
H    9.820208   2.880850   4.381406
H   12.319578   3.621622   2.141041
H   12.392276  -0.927194   0.727526
H    9.892622  -1.662127   2.969497

