%chk=mol_6913.chk
# wB97XD/Def2SVP opt freq pop=full gfinput

C 6 H 5 N 1

1 2
C    0.95059961  -0.01745999  -0.00463000
C    2.15062928   0.00675000  -0.00144000
C    3.56997871   0.03574999   0.00244000
C    4.39792871   1.13726962   0.00453000
C    5.73445797   0.66456974   0.00838000
C    5.68246794  -0.71180969   0.00844000
N    4.36192846  -1.08280957   0.00477000
H   -0.11403996  -0.03226999  -0.00737000
H    4.07735872   2.17109942   0.00348000
H    6.63536739   1.26457953   0.01084000
H    6.46677732  -1.45677936   0.01082000
H    4.01793861  -2.03354931   0.00394000

