%chk=mol_4876.chk
# wB97XD/Def2SVP opt freq pop=full gfinput

C 4 H 7 N 1 O 2

1 2
C    2.47554898  -1.69829941   0.19838992
C    2.63995910  -0.47176981  -0.66012973
O    2.26743913  -0.45388982  -1.83441925
C    3.28739858   0.73276973  -0.03544999
C    4.78374815   0.68903971  -0.14470994
N    5.36132812   1.73473930  -0.80274969
O    5.46641827  -0.20728992   0.33809990
H    3.44963861  -2.04895926   0.54513979
H    2.00260925  -2.49317908  -0.38496986
H    1.83392930  -1.46166945   1.05173957
H    3.01232886   0.79408967   1.02201962
H    2.88354874   1.62970936  -0.51645982
H    4.83220816   2.34291935  -1.41407955
H    6.36174774   1.68147933  -0.95203966

