%chk=mol_6272.chk
# wB97XD/Def2SVP opt pop=full gfinput

C 4 H 7 N 1 O 2

1 2
O    3.717129  -2.694957  -0.539933
C    3.217580  -0.492387   0.924832
C    5.402368   1.399626   0.873431
O    5.096308   3.667713   1.247937
N    7.705434   0.242962   0.415078
C    9.956400   1.501898   0.282684
C   12.132439   0.303585  -0.161609
H    3.598813  -2.181405  -2.305145
H    2.898027  -1.067657   2.884157
H    1.509683   0.413585   0.191751
H    7.665202  -1.664263   0.174063
H    9.895721   3.540043   0.557904
H   12.233123  -1.723903  -0.437358
H   13.889166   1.358354  -0.255056

