%chk=mol_1445.chk
# wB97XD/Def2SVP opt pop=full gfinput

C 5 H 8 N 2

1 2
C    1.888706  -0.090971   0.203429
C    4.762110   0.000000   0.000000
C    5.746222  -1.358751  -2.325629
N    4.318705  -1.906658  -4.244041
N    5.585823  -3.060185  -6.140986
C    5.672996   2.572238   0.000000
C    6.423746   4.692322   0.000000
H    1.244989   0.779474   1.968603
H    1.206892  -2.045213   0.171304
H    0.975911   0.919654  -1.357863
H    5.558951  -1.008226   1.626846
H    7.788639  -1.816102  -2.316804
H    6.764464  -1.816121  -7.039608
H    4.325772  -3.612495  -7.499869
H    7.085906   6.594766  -0.002683

