%chk=mol_2646.chk
# wB97XD/Def2SVP opt freq pop=full gfinput

C 5 H 10 O 2

1 2
C    2.29229903  -0.29439989  -1.58439934
C    2.46826911   0.11680995  -0.13200995
C    3.17255902   1.45747948   0.02467999
C    2.41559911   2.64645910  -0.52041978
O    3.00366879   3.74913859   0.16875994
C    3.39238858   3.21024895   1.43533945
O    3.31105876   1.78203928   1.41227949
H    1.83034933  -1.28457952  -1.64173937
H    3.25737882  -0.33995989  -2.09717917
H    1.64818931   0.40752983  -2.12075925
H    3.04368877  -0.65323979   0.39825985
H    1.49065948   0.14593995   0.36641988
H    4.18336868   1.41451943  -0.40153983
H    1.35118949   2.61573911  -0.26368991
H    2.52382922   2.77307892  -1.60068929
H    4.42025852   3.51460862   1.65443945
H    2.72916889   3.59418869   2.21631908

