%chk=mol_3486.chk
# wB97XD/Def2SVP opt freq pop=full gfinput

C 6 H 6 O 1

1 2
O   -1.35026944   0.83641970   0.60641980
C   -1.11770952  -0.38008985  -0.11758996
C   -0.17748994  -1.41732943   0.34990987
C    1.15569949  -1.24142957   0.39459985
C    1.74842930   0.02074999  -0.00535000
C    0.97534966   1.03806961  -0.42814985
C   -0.49351981   0.94927967  -0.53866976
H   -1.93746936  -0.75618970  -0.71944976
H   -0.60276979  -2.36187911   0.67476976
H    1.81457937  -2.02692914   0.75063968
H    2.82542872   0.12650995   0.06796998
H    1.43766952   1.98151934  -0.70164973
H   -0.90749967   1.43714941  -1.41404951

