%chk=mol_5676.chk
# wB97XD/Def2SVP opt pop=full gfinput

C 4 H 10 N 2 O 1

1 2
N    5.280122  -2.036860  -1.088218
C    4.172969   0.123683   0.214295
C    6.098826   2.217990   0.348125
O    8.336885   1.612617   1.795051
C    6.527454   3.907047  -1.896284
C    5.258069   4.949967   0.424017
N    6.630614   6.788142   1.980055
H    4.235027  -3.609925  -0.735746
H    7.034090  -2.352577  -0.348957
H    3.629862  -0.420804   2.136751
H    2.460934   0.725182  -0.781591
H    7.968522   1.673371   3.593012
H    5.381052   3.601837  -3.566896
H    8.451385   4.465102  -2.316407
H    3.244055   5.326873   0.255680
H    8.506961   6.334060   2.012445
H    6.036258   6.727104   3.807893

