%chk=mol_5556.chk
# wB97XD/Def2SVP opt freq pop=full gfinput

C 4 H 8 N 2 O 1

1 2
N    0.97482967   0.02137999  -0.03005999
C    2.43257904  -0.00379000   0.03626999
C    3.05178881   1.12961960   0.85758966
N    4.32815838   0.59576976   1.23080957
C    4.32009840  -0.78473967   1.23886955
O    5.22853804  -1.48613942   1.64775932
C    2.98425889  -1.25948954   0.71957976
H    0.63983977  -0.78478974  -0.55876976
H    0.66365975   0.84634972  -0.54252982
H    2.83267879   0.04051999  -0.98598963
H    2.49032903   1.33987951   1.77425933
H    3.18058896   2.05125928   0.28402990
H    5.08150816   1.10631955   1.67320931
H    3.10764885  -2.08393908   0.01313000
H    2.37338901  -1.57733941   1.57080936

