%chk=mol_4781.chk
# wB97XD/Def2SVP opt pop=full gfinput

C 4 H 10 N 2 O 1

1 2
C    7.010695  -1.065050   3.571998
C    5.135539  -0.656037   1.433735
N    5.012971   1.981321   0.633058
N    3.788693   3.729620   2.266537
C    1.131171   4.014591   1.577184
C    6.629594   2.942171  -1.200316
O    6.915925   5.190360  -1.686524
H    7.084432  -3.066270   4.085588
H    6.468306   0.009505   5.254535
H    8.911817  -0.462605   3.021974
H    3.240786  -1.262054   2.007135
H    5.696617  -1.807939  -0.192752
H    4.657702   5.447117   1.984798
H    0.099985   2.240762   1.843371
H    0.913853   4.630868  -0.386751
H    0.254149   5.435060   2.797570
H    7.646078   1.447190  -2.237473

