%chk=mol_1512.chk
# wB97XD/Def2SVP opt pop=full gfinput

C 6 H 9 N 1

1 2
C    1.875364  -0.074039  -0.028403
C    4.762110   0.000000   0.000000
N    5.768408  -1.338399  -2.194274
C    5.672996   2.572238   0.000000
C    6.423746   4.692322   0.000000
C    7.310651   7.196871   0.000000
C    5.727665   9.165947   0.011508
H    1.100539   0.897015   1.627375
H    1.182817  -2.023670   0.004687
H    1.101219   0.852758  -1.710845
H    5.427444  -0.970412   1.703890
H    5.200130  -0.430007  -3.794362
H    5.001557  -3.099737  -2.275854
H    9.339253   7.506824  -0.012019
H    3.691429   8.914802   0.021713
H    6.448690  11.085190   0.009638

