%chk=mol_6646.chk
# wB97XD/Def2SVP opt freq pop=full gfinput

C 4 H 5 N 1 O 1 S 1

1 2
N    1.01371968   0.00097000  -0.00982000
C    2.35700917   0.03515999  -0.00234000
C    3.08953881   1.19637954   0.00087000
S    4.77250814   0.88055962   0.01106000
C    4.52063799  -0.81067973   0.01081000
O    5.56941795  -1.62860942   0.01786999
C    3.17658901  -1.12355959   0.00283000
H    0.44281983   0.84092969  -0.00091000
H    0.48178983  -0.86309963   0.00056000
H    2.73376894   2.21564913  -0.00210000
H    5.22563791  -2.53693891   0.01669999
H    2.80192900  -2.13777924   0.00084000

