%chk=mol_6879.chk
# wB97XD/Def2SVP opt freq pop=full gfinput

C 5 H 8 N 2

1 2
C    0.94219965   0.06893998  -0.16765992
C    2.42657924  -0.07800997   0.11477996
N    2.66727901  -1.23238957   0.96554959
C    3.38436890  -0.84903967   2.05953932
N    3.89939857  -1.64331937   2.92380905
C    3.53836870   0.60829979   2.11907911
C    2.97534895   1.02939963   0.97770965
H    0.57231981  -0.78955972  -0.73870975
H    0.74223971   0.97567964  -0.74840975
H    0.35534984   0.12387995   0.75679976
H    3.00041890  -0.15514995  -0.81493968
H    2.92800879  -2.09849930   0.51506978
H    3.63749862  -2.60200882   2.68097901
H    4.02135849   1.15505958   2.90686893
H    2.92927885   2.06865931   0.68362975

