%chk=mol_4536.chk
# wB97XD/Def2SVP opt freq pop=full gfinput

C 4 H 7 N 1 O 2

1 2
C    0.65820974   0.28321987   0.11063996
C    2.10234928   0.11435996   0.45420983
C    3.10433888   0.71441978  -0.20357993
N    4.43387794   0.56921977   0.09272996
O    4.75690794  -0.28893989   1.16957963
C    5.49706793   1.15725958  -0.54890984
O    6.67200756   0.97848964  -0.23972991
H    0.21906991  -0.68796974  -0.13471994
H    0.51205981   0.94979966  -0.74445975
H    0.11832996   0.69974971   0.96540964
H    2.31891918  -0.54353976   1.29393959
H    2.88716888   1.37233949  -1.04136956
H    5.73566771  -0.24350990   1.17091954
H    5.19749832   1.81441939  -1.38094950

