%chk=mol_3819.chk
# wB97XD/Def2SVP opt freq pop=full gfinput

C 5 H 9 N 1 O 1

1 2
C   -1.48932934   0.77527970   0.26429990
C   -1.36630940  -0.68567973  -0.15376994
C   -0.01839999  -1.22738957   0.21245992
N    1.06518960  -1.10741961  -0.76662970
C    1.11414969  -0.25467989   0.41929984
C    0.84213966   1.22003961   0.33483985
O   -0.41286984   1.53480947  -0.28637990
H   -2.42560911   1.19204962  -0.12022996
H   -1.49888945   0.88530964   1.35553944
H   -1.51334941  -0.77516973  -1.23699951
H   -2.15242934  -1.27424955   0.33149987
H   -0.05402998  -2.14178920   0.78970975
H    1.71796942  -1.88824928  -0.68550974
H    1.89093935  -0.48722979   1.13694954
H    0.84119970   1.65398943   1.34135950
H    1.63249934   1.71709931  -0.23643991

