%chk=mol_5320.chk
# wB97XD/Def2SVP opt freq pop=full gfinput

C 5 H 13 N 1 O 1

1 2
C    1.85879922   1.03768957  -1.89552939
O    3.15692878   1.34084952  -1.40402937
C    3.28176856   1.02372968  -0.01748999
C    4.68130827   1.39663959   0.45955983
C    5.02153778   2.88536882   0.30739987
C    4.10221863   3.83978868   1.07062960
N    4.09585857   3.55690861   2.50212908
H    1.84559929   1.22739959  -2.97198892
H    1.11380959   1.68082941  -1.41821957
H    1.61457944  -0.01498999  -1.72354937
H    3.13177896  -0.05366998   0.11784996
H    2.51377892   1.55123937   0.55850977
H    5.41478825   0.83027965  -0.12860996
H    4.80383825   1.08638954   1.50318944
H    5.00250816   3.15716863  -0.75483972
H    6.05598783   3.03768897   0.64172977
H    3.07993865   3.78262854   0.68549979
H    4.44536829   4.86841822   0.91303968
H    5.04348803   3.64740849   2.86975884
H    3.53893852   4.26385832   2.98144889

