%chk=mol_1133.chk
# wB97XD/Def2SVP opt pop=full gfinput

C 4 H 9 N 1 O 1

1 2
O    1.380350   0.498661  -0.671628
C    4.016953  -0.044314  -0.793458
C    5.473629   1.797942   0.892555
N    8.194740   1.264340   0.774996
C    9.627077   3.095012  -0.714505
C    9.706484   3.135188   2.130194
H    0.535000  -0.771386  -1.696955
H    4.619266   0.124023  -2.765803
H    4.307744  -1.996042  -0.168375
H    4.811205   1.569701   2.845002
H    4.983170   3.745418   0.360919
H    8.625447   4.591865  -1.686089
H   11.257174   2.356167  -1.706366
H   11.382766   2.415542   3.057445
H    8.739776   4.644304   3.118785

