%chk=mol_3036.chk
# wB97XD/Def2SVP opt freq pop=full gfinput

C 5 H 8 O 2

1 2
C    1.30288947   0.08475997   0.20657992
C    2.72507906  -0.15824994  -0.29075989
C    2.73159885  -0.90633965  -1.61035943
O    1.72463942  -1.29584944  -2.19607902
C    3.46467876   1.14251959  -0.42683983
C    4.43702841   1.60836947   0.62723976
O    4.88201809   0.99651963  -0.59132981
H    1.30839956   0.60746980   1.16929948
H    0.76525974  -0.86104965   0.33514988
H    0.73193973   0.69734973  -0.50117981
H    3.23655868  -0.80730969   0.43088984
H    3.73251867  -1.12923956  -2.01796937
H    2.96043897   1.87785935  -1.04218960
H    4.54612827   1.03619957   1.53974950
H    4.60415840   2.67230892   0.73967969

