%chk=mol_3465.chk
# wB97XD/Def2SVP opt freq pop=full gfinput

C 7 H 12

1 2
C    1.88140929  -0.30801988  -1.31820953
C    2.21680903   0.24128991   0.06311998
C    2.87850904   1.60909939  -0.00044000
C    2.03965926   2.79599905  -0.11962995
C    0.70108974   2.83310914  -0.18855993
C    4.22617865   1.67188942   0.07703997
C    5.13274813   2.86253905   0.05259998
H    1.38480949  -1.27925956  -1.22551954
H    2.78960896  -0.45143983  -1.91360927
H    1.21429956   0.35926986  -1.87250924
H    2.87999892  -0.47689980   0.56370980
H    1.31765950   0.27140990   0.68940973
H    2.54268909   3.75832844  -0.15629995
H    0.07753997   1.94793928  -0.16507994
H    0.18839994   3.78640842  -0.27421990
H    4.77206802   0.73203975   0.16466993
H    4.61498833   3.82171845   0.01031000
H    5.79456806   2.80015898  -0.81717974
H    5.75646782   2.86368871   0.95233965

