%chk=mol_6888.chk
# wB97XD/Def2SVP opt freq pop=full gfinput

C 5 H 8 N 2

1 2
C    0.99845958   0.04364999   0.16586994
C    2.48857903  -0.06127997  -0.11851995
N    2.73612905  -1.13129961  -1.10604954
N    3.50252867  -0.72141975  -2.16178918
C    3.64815879   0.56054980  -2.03634930
C    3.06285882   1.12929964  -0.81517965
C    3.09744883   2.42397904  -0.48744980
H    0.79108971   0.85282969   0.87521970
H    0.61847973  -0.88712966   0.60204977
H    0.42227983   0.24591990  -0.74544972
H    3.05208898  -0.26811990   0.79886967
H    3.11129904  -1.97654927  -0.67433977
H    4.18716860   1.20259953  -2.74781895
H    2.65320897   2.77879906   0.43748984
H    3.57215858   3.15969896  -1.12909961

