%chk=mol_6155.chk
# wB97XD/Def2SVP opt freq pop=full gfinput

C 4 H 6 N 2 O 1

1 2
O    1.85508931   0.00523000  -0.91456968
C    2.57699919  -0.01582999   0.31402987
C    3.41723871   1.21504962   0.43704984
N    3.89363861   1.90388930  -0.76356971
C    2.86637902   2.57063913   0.05808998
C    3.20706868   3.69849849   0.88166964
N    3.45294857   4.59959841   1.56987941
H    1.39345956  -0.84947968  -0.98062962
H    3.21332884  -0.90635961   0.32673988
H    1.86374938  -0.07444998   1.14157951
H    4.12278843   1.15022957   1.25758946
H    3.44503856   1.47610950  -1.58178937
H    1.88104928   2.61477900  -0.39388984

