%chk=mol_4082.chk
# wB97XD/Def2SVP opt freq pop=full gfinput

C 4 H 5 N 1 O 2

1 2
C    0.92106968  -0.07848997   0.16416994
C    2.24417925  -0.03258999  -0.03208999
C    3.04904890   1.22305954  -0.12376995
O    4.22600842   1.04516959   0.66284972
N    5.00535774  -0.05057998   0.22597991
C    4.31937838  -1.09786963  -0.10007996
O    2.96376896  -1.23407948  -0.15353994
H    0.32844988   0.82416970   0.26911989
H    0.40244985  -1.03003967   0.22752993
H    2.50615907   2.08657908   0.27303991
H    3.33179855   1.43898940  -1.16032958
H    4.80260849  -2.04350924  -0.38773984

