%chk=mol_4464.chk
# wB97XD/Def2SVP opt freq pop=full gfinput

C 5 H 9 N 1 O 1

1 2
C    1.21473956  -0.03756998  -0.91813964
C    2.01803923  -0.52064979   0.25823990
C    1.96347928  -1.80083942   0.65517974
N    2.82830906   0.35596988   0.95174962
C    3.02211881   1.70434928   0.69360977
C    3.98895860   2.33655930   1.66219938
O    2.51360893   2.35428905  -0.21280992
H    1.87090921   0.34418988  -1.70689940
H    0.51511979   0.74810970  -0.61502975
H    0.61846977  -0.84387970  -1.36018956
H    1.33811951  -2.52173901   0.13625996
H    2.53168893  -2.17577934   1.49967933
H    3.34320879  -0.02969999   1.73459935
H    3.73595858   2.05957913   2.68952894
H    3.93343854   3.42556882   1.57636940
H    5.00568819   2.00924921   1.42916942

