%chk=mol_3406.chk
# wB97XD/Def2SVP opt pop=full gfinput

C 6 H 6 O 1

1 2
C    1.893978  -0.121113   0.027911
O    4.575802  -0.013152   0.026985
C    5.468886   2.529493   0.000000
C    8.197651   2.529493   0.000000
C   10.446728   2.529493   0.000000
C   13.342109   2.531704  -0.000000
C   15.608477   2.532403   0.000000
H    1.322260  -2.106364   0.049057
H    1.131644   0.766360  -1.677245
H    1.131360   0.802586   1.713585
H    4.751716   3.523999   1.668949
H    4.751716   3.488378  -1.689680
H   17.621639   2.528359   0.000057

