%chk=mol_3671.chk
# wB97XD/Def2SVP opt pop=full gfinput

C 5 H 4 O 2

1 2
O    1.559459   0.704225   0.473735
C    3.769531   0.499549  -0.177974
C    5.731709   2.158577   0.879479
O    7.725295   2.773060  -0.853174
C    6.051243   4.790833  -0.145660
C    7.254772   6.677404   1.371998
C    8.260485   8.262752   2.644445
H    4.394501  -0.936114  -1.552845
H    6.228027   1.810225   2.833096
H    4.714300   5.447192  -1.552599
H    9.160013   9.669200   3.771100

