%chk=mol_5485.chk
# wB97XD/Def2SVP opt pop=full gfinput

C 5 H 9 N 1 O 1

1 2
N    1.881638  -0.045221  -0.180299
C    4.635272  -0.188670  -0.086493
C    6.002583  -1.500934  -2.183862
C    6.178138   1.338663  -1.947911
C    8.584383   2.702497  -1.161161
C   11.197119   1.961271  -2.033704
O    9.853561   3.998679  -3.188308
H    1.235900   1.458226   0.837470
H    1.083890  -1.611842   0.608189
H    5.419923  -0.417459   1.800096
H    4.913552  -2.249265  -3.749689
H    7.637120  -2.630688  -1.693610
H    5.077826   2.393603  -3.337162
H    8.465085   3.733494   0.610759
H   11.425096   0.245853  -3.123434
H   12.787606   2.433438  -0.837564

