%chk=mol_5988.chk
# wB97XD/Def2SVP opt freq pop=full gfinput

C 4 H 7 N 1 O 2

1 2
O    1.40659940   0.16594994   0.92928970
C    2.42432904   0.05839998   0.24752991
C    3.03079891  -1.29340959  -0.05387998
C    4.00521851  -1.26732945  -1.21805954
C    4.88244820  -0.03801998  -1.10500956
O    4.04574871   1.11283958  -1.21031952
N    3.12165904   1.15889955  -0.14698994
H    2.22521901  -2.00577927  -0.26187989
H    3.54899859  -1.62252939   0.85495967
H    4.60885811  -2.18037939  -1.23016953
H    3.43718886  -1.22465944  -2.15529919
H    5.44710779  -0.00917000  -0.16547994
H    5.59890795  -0.00651000  -1.93181920
H    2.69014907   2.06226921   0.01503999

