%chk=mol_0375.chk
# wB97XD/Def2SVP opt freq pop=full gfinput

C 4 H 8 N 2

1 2
C    1.02132964   0.06853998   0.07609997
C    2.50459886  -0.08524997  -0.01549999
C    3.14833903  -1.25178957   0.13793994
C    3.28274870   1.15606952  -0.29621992
N    4.57199812   1.19627953  -0.42726985
N    5.04322815   2.44133902  -0.67163980
H    0.75786966   0.76273966   0.88073969
H    0.52425981  -0.88529968   0.28206989
H    0.61866975   0.45835984  -0.86447966
H    2.61239886  -2.17264915   0.34155989
H    4.23047829  -1.31926942   0.06063998
H    2.66886878   2.07215929  -0.39211985
H    6.01537800   2.37107921  -0.98415959
H    5.09578800   2.97702885   0.19881992

