%chk=mol_7052.chk
# wB97XD/Def2SVP opt pop=full gfinput

C 7 H 10

1 2
C    2.125998   0.332724   0.387942
C    4.577389  -0.139348  -0.016195
C    5.675452  -2.763290  -0.292378
C    7.991803  -2.376690  -2.000143
C    8.739964   0.344799  -1.658235
C    7.393138   2.428393  -3.052059
C    6.579346   1.740173  -0.426700
H    1.429143   2.258393   0.496941
H    0.766775  -1.186427   0.606829
H    4.354420  -4.130922  -1.103581
H    6.281733  -3.443308   1.568870
H    9.522141  -3.663688  -1.471095
H    7.506521  -2.741879  -3.980935
H   10.634415   0.636800  -0.955068
H    8.383127   4.204338  -3.304602
H    6.167065   1.940881  -4.619360
H    7.007955   3.006706   1.123178

