%chk=mol_2282.chk
# wB97XD/Def2SVP opt freq pop=full gfinput

C 6 H 10 O 1

1 2
C    0.99794966   0.02905999   0.28224990
C    2.51324916   0.00981000   0.06274997
C    2.95905900  -1.29858959  -0.62599981
C    2.85424876  -0.99463964  -2.08938932
O    3.96771860  -0.30591989  -2.66484904
C    2.84786892   0.48697981  -2.26473927
C    2.94836903   1.12487948  -0.91256964
H    0.68860972   0.97303963   0.74219972
H    0.69617975  -0.78450972   0.94958967
H    0.44778982  -0.08414997  -0.65715975
H    3.00229883   0.12694995   1.03612959
H    2.33581924  -2.15165925  -0.34047988
H    3.99784851  -1.53088951  -0.36619988
H    2.22676921  -1.63105941  -2.69025898
H    2.21474910   0.96016967  -2.99651885
H    3.98508859   1.42040956  -0.71536970
H    2.31763911   2.01590919  -0.83326966

