%chk=mol_1480.chk
# wB97XD/Def2SVP opt freq pop=full gfinput

C 5 H 12 N 2

1 2
C    3.10453868  -1.13661957  -0.51625979
C    2.44298911   0.08420997   0.11641996
N    2.03013921  -0.20906992   1.48612940
C    3.38946867   1.25014949   0.16927995
C    3.53561878   2.15550923  -1.02951968
C    2.85669899   2.66048908   0.21147992
N    3.53101873   3.66726851   1.02890956
H    3.41307878  -0.91772968  -1.54434943
H    2.41551900  -1.98760927  -0.54581976
H    4.00067854  -1.44237947   0.03579999
H    1.55028951   0.34397987  -0.46503982
H    2.83295894  -0.53171980   2.02384925
H    1.37108946  -0.98625964   1.47881937
H    4.29195833   1.02542961   0.72684973
H    2.91361880   1.97903931  -1.89986932
H    4.52406836   2.52934909  -1.26891959
H    1.77768934   2.78497887   0.15604995
H    4.53010798   3.48157859   1.09720957
H    3.17793894   3.62367845   1.98590922

