%chk=mol_7163.chk
# wB97XD/Def2SVP opt pop=full gfinput

C 7 H 10

1 2
C    1.800323  -0.069693  -0.229110
C    4.670231   0.024491   0.019105
C    5.896324  -2.314178  -1.046096
C    7.745288  -1.742951  -2.678687
C    8.049402   1.049970  -2.989604
C    5.913218   2.152644  -1.453010
C    5.184124   4.575669  -1.542659
H    0.923434   1.581115   0.662500
H    1.034682  -1.754365   0.703488
H    1.198597  -0.116010  -2.210809
H    5.189263   0.175480   2.020816
H    5.367711  -4.209403  -0.504935
H    8.904031  -3.115459  -3.648664
H    9.883117   1.645120  -2.240157
H    7.901380   1.579074  -4.980562
H    6.167632   5.934458  -2.721451
H    3.588344   5.260355  -0.447525

