%chk=mol_3917.chk
# wB97XD/Def2SVP opt pop=full gfinput

C 5 H 5 N 1 O 1

1 2
C    1.863270  -0.003156  -0.010696
C    4.654452   0.114272  -0.005178
C    6.193426   2.110314   0.003742
C    8.693326   0.975685   0.005575
N    8.725319  -1.459133  -0.001058
C    6.237381  -2.191194  -0.007842
O    5.404220  -4.336903  -0.014778
H    1.030241   1.890690   0.001928
H    1.173822  -1.011249   1.658858
H    1.179775  -0.986607  -1.697276
H    5.761964   4.092466   0.008409
H   10.378357   2.192158   0.012208

