%chk=mol_6198.chk
# wB97XD/Def2SVP opt freq pop=full gfinput

C 5 H 3 N 1 O 1

1 2
O    1.18865955  -0.31293988   0.50670981
C    2.23779893  -0.04211999  -0.07343997
C    2.96858907   1.28344953   0.00000000
C    2.52412915   2.11030912   1.13986969
C    2.16280913   2.79051900   2.06220937
C    4.38840866   1.02029967   0.00000000
N    5.52014828   0.81054974   0.00000000
H    2.65734887  -0.77163970  -0.79040968
H    2.71214890   1.81048930  -0.92786968
H    1.83669937   3.38683867   2.88399887

