%chk=mol_3065.chk
# wB97XD/Def2SVP opt freq pop=full gfinput

C 7 H 12

1 2
C    0.75892973  -0.32284987   0.68383974
C    2.15940928  -0.47616982   0.08266997
C    2.37953901  -1.92757928  -0.34561986
C    2.33325934   0.51964980  -1.08300960
C    3.69890857   0.49578980  -1.77493930
C    4.79212809   0.89986968  -0.87880969
C    5.69188786   1.22972953  -0.15563995
H    0.60261977   0.69714975   1.05035961
H    0.61996979  -1.00514960   1.52902937
H   -0.01782999  -0.53998977  -0.05755998
H    2.88453889  -0.23840991   0.87060964
H    1.72826934  -2.19778919  -1.18353963
H    2.16739917  -2.61320901   0.48198983
H    3.41669869  -2.10042930  -0.64808977
H    2.14144921   1.53522944  -0.71106976
H    1.56482947   0.31934988  -1.84128940
H    3.66746855   1.18864954  -2.62475920
H    3.90202832  -0.49371979  -2.19726920
H    6.49221754   1.52269948   0.48406982

