%chk=mol_0927.chk
# wB97XD/Def2SVP opt freq pop=full gfinput

C 4 H 4 O 2

1 2
O    3.17870879  -0.91713965  -1.34247947
C    2.51837897   0.08040997  -1.10436952
O    2.92280912   1.18109953  -0.43348983
C    4.28908825   1.16826952   0.00000000
C    4.77110815   2.52943897   0.00000000
C    5.16838837   3.65133858   0.00000000
H    1.46959949   0.21486993  -1.41170955
H    4.91816807   0.55649984  -0.65651977
H    4.32120800   0.74358970   1.00857961
H    5.52108765   4.65704870  -0.00153000

