%chk=mol_1775.chk
# wB97XD/Def2SVP opt pop=full gfinput

C 5 H 14 N 2

1 2
C    2.375782  -0.319742   0.596190
N    5.089221   0.076817   0.358443
C    5.823172   2.777879   0.444275
C    4.947208   4.117146   2.858060
C    8.745879   3.062018   0.056371
C   10.315089   2.059064   2.271923
N    9.560673   1.749225  -2.271640
H    1.942846  -2.305201   0.214087
H    1.307161   0.829817  -0.753302
H    1.717326   0.080049   2.514016
H    5.641645  -0.568902  -1.376080
H    4.914346   3.730622  -1.161804
H    5.502467   3.079913   4.560608
H    2.889127   4.328399   2.890997
H    5.752478   6.020384   2.971009
H    9.167534   5.076088  -0.185325
H    9.964923   0.048396   2.620729
H    9.901560   3.093198   4.015895
H   12.341291   2.290726   1.903521
H    9.460196  -0.149685  -1.942449
H   11.433637   2.105004  -2.556988

