%chk=mol_4478.chk
# wB97XD/Def2SVP opt freq pop=full gfinput

C 5 H 11 N 1 O 1

1 2
C    1.19462955  -0.34318990   0.15842994
C    2.24053907  -1.04007959   1.01435959
C    3.64573860  -0.51954979   0.71112972
N    4.66754866  -1.17609966   1.51840937
C    5.20218801  -2.44485903   1.06380951
C    4.99424839  -0.66868979   2.75960898
O    4.52149820   0.33890986   3.26869869
H    0.19642992  -0.72804976   0.38956985
H    1.38473952  -0.51132983  -0.90653968
H    1.19324958   0.73592973   0.34101987
H    2.19090915  -2.12017918   0.83410966
H    2.00357914  -0.88589966   2.07376909
H    3.68228841   0.55912977   0.90865964
H    3.89647865  -0.66411972  -0.34597987
H    4.39248800  -3.17776871   1.00972962
H    5.97022772  -2.81519890   1.74787939
H    5.64258766  -2.30841923   0.07252997
H    5.76281786  -1.26547956   3.27940893

