%chk=mol_4280.chk
# wB97XD/Def2SVP opt freq pop=full gfinput

C 5 H 3 N 1 O 1

1 2
C    1.00827968  -0.03386999   0.00190000
C    2.20803905   0.02184999  -0.00096000
C    3.62255859   0.09040996  -0.00439000
N    4.37210846   1.17143953  -0.00806000
C    5.64962769   0.66929978  -0.01024000
C    5.61368799  -0.70336974  -0.00773000
O    4.30610800  -1.09044957  -0.00394000
H   -0.05552998  -0.07931997   0.00441000
H    6.51576757   1.31609952  -0.01344000
H    6.35173750  -1.49156940  -0.00810000

