%chk=mol_4172.chk
# wB97XD/Def2SVP opt freq pop=full gfinput

C 6 H 11 N 1

1 2
C    0.98167962   0.02911999   0.06701997
C    0.73721969   0.34385988   1.51482952
C   -0.07060997   1.55451941   1.91299927
C   -0.64154977   0.17649993   2.10406923
N    2.24495912   0.66151977  -0.32271990
C    3.34748888  -0.28121987  -0.50174981
C    2.65020895   0.33079988  -1.68644941
H    0.97829968  -1.06010962  -0.06465998
H    0.16945994   0.43051985  -0.55135977
H    1.57659936   0.06369998   2.14272928
H   -0.48739982   2.17738914   1.12932968
H    0.24729991   2.10444927   2.79106879
H   -0.71565974  -0.20419993   3.11656880
H   -1.45174944  -0.13106994   1.45389938
H    3.18440890  -1.33053946  -0.28844988
H    4.33102846   0.09125997  -0.24146992
H    3.16157866   1.11840963  -2.22645926
H    1.99500930  -0.29050991  -2.28429914

