%chk=mol_4055.chk
# wB97XD/Def2SVP opt freq pop=full gfinput

C 5 H 11 N 1 O 1

1 2
C    0.98239964  -0.09197997   0.03480999
C    2.49611902   0.00455000   0.04559999
C    3.16136885   1.09017956   0.94874966
O    2.40682912   1.56701934   2.08865929
C    4.20025826  -0.02659999   1.24057961
N    3.12444901  -1.01336956   0.94214970
C    3.65774846  -2.12666941   0.16363995
H    0.65494978  -0.96648961  -0.53795975
H    0.54767978   0.79511970  -0.43813983
H    0.56166977  -0.17482994   1.04275966
H    2.89136887   0.03294999  -0.98081964
H    3.56708860   1.94434929   0.39525986
H    2.12811923   0.74325973   2.53200889
H    5.05745840  -0.01822999   0.55536979
H    4.57220793  -0.06480998   2.26887918
H    2.83653903  -2.75452900  -0.19923992
H    4.29087830  -2.75567889   0.79927969
H    4.25339842  -1.81512928  -0.70320976

