%chk=mol_1014.chk
# wB97XD/Def2SVP opt freq pop=full gfinput

C 4 H 9 N 1 O 1

1 2
C    1.74002934  -0.95582962   0.44408983
C    3.19046879  -0.50939983   0.34344989
N    3.25362873   0.85328972  -0.18635993
C    4.64653826   1.30867946  -0.27311990
C    4.66616821   2.70111918  -0.86611968
O    5.13673830   3.67815852  -0.28900987
H    1.68621945  -1.97590923   0.83799970
H    1.25423956  -0.94741964  -0.53757977
H    1.16924953  -0.30521989   1.11539960
H    3.72958851  -1.19820952  -0.31672990
H    3.65059876  -0.55755979   1.33717954
H    2.74257898   1.47654939   0.44306982
H    5.23349810   0.66240972  -0.93412966
H    5.11711788   1.33792949   0.71539974
H    4.24665833   2.79157877  -1.88311934

