%chk=mol_5499.chk
# wB97XD/Def2SVP opt freq pop=full gfinput

C 5 H 9 N 1 O 1

1 2
N    0.98699963  -0.00242000  -0.01342000
C    2.44428897  -0.01528999   0.00281000
C    3.01364875  -1.14407957   0.87116963
C    3.83786869  -0.28443989   1.82328928
C    4.55977821   0.78213972   0.95462966
C    3.06233883   1.16144955   0.77063972
O    2.93255877   0.83686972   2.23282909
H    0.63404977  -0.84021968  -0.47054982
H    0.64671981   0.79501975  -0.54726982
H    2.82619905  -0.06586998  -1.02278960
H    3.63139868  -1.83610940   0.29058990
H    2.24821901  -1.71467936   1.40711951
H    4.38447809  -0.73133969   2.65404892
H    5.09750843   0.42536986   0.07331997
H    5.16885805   1.50663948   1.50215936
H    2.82404876   2.19659925   0.52265978

