%chk=mol_5545.chk
# wB97XD/Def2SVP opt freq pop=full gfinput

C 4 H 6 N 2 O 1

1 2
N    1.02861965  -0.02079999  -0.01425000
C    2.36619902   0.06804997  -0.00368000
C    3.20104885   1.16299963   0.00258000
C    4.51791811   0.66186976   0.01210999
O    5.66626787   1.35008943   0.02020999
C    4.47072792  -0.70661974   0.01147000
N    3.14542890  -1.06092954   0.00129000
H    0.44151986   0.80898964   0.00081000
H    0.51515985  -0.89607966   0.00537000
H    2.88737893   2.19657922   0.00005000
H    5.47679806   2.30305910   0.01792999
H    5.25221825  -1.45279956   0.01660999
H    2.79373908  -2.00667930  -0.00281000

