%chk=mol_6128.chk
# wB97XD/Def2SVP opt pop=full gfinput

C 4 H 7 N 1 O 2

1 2
O    3.438395  -0.700181  -2.247489
C    3.864414   0.324693   0.204903
C    5.959270   2.255917   0.034771
C    5.332883   4.765512  -1.325794
N    6.363729   6.070254   0.899699
C    6.254786   3.958107   2.365635
O    6.233224   3.728562   4.637142
H    2.215931  -2.062485  -2.057515
H    4.399415  -1.221613   1.471322
H    2.091587   1.151259   0.881217
H    7.769836   1.421603  -0.543277
H    3.330076   5.183557  -1.626468
H    6.412483   5.138638  -3.044179
H    5.796168   7.716394   1.690965

