%chk=mol_4679.chk
# wB97XD/Def2SVP opt pop=full gfinput

C 5 H 11 N 1 O 1

1 2
C    1.753760  -0.225388  -0.105995
C    4.635479  -0.046563   0.007559
N    5.737435  -1.614544  -1.979186
C    5.484798   2.673433  -0.135493
C    7.023923   3.706036  -1.870621
C    7.832650   6.406701  -1.912705
O   10.501775   6.500866  -1.682196
H    0.884694   0.826925   1.451196
H    1.126485  -2.192989   0.050890
H    1.008717   0.540311  -1.880977
H    5.268972  -0.801074   1.830521
H    5.043906  -1.041145  -3.681602
H    5.141529  -3.431402  -1.761225
H    4.767137   3.873636   1.377780
H    7.794875   2.545556  -3.382988
H    7.000585   7.509696  -0.373977
H    7.300182   7.284120  -3.707397
H   10.952758   5.372623  -0.302129

