%chk=mol_3545.chk
# wB97XD/Def2SVP opt freq pop=full gfinput

C 6 H 10 O 1

1 2
O    1.10302961   0.15427993   0.19061993
C    2.49614906  -0.02586999  -0.01507999
C    2.77928901  -1.47310936  -0.43492985
C    2.60940909  -1.47540939  -1.96052921
C    3.06095886  -0.10444997  -2.37900925
C    2.11316919   1.06113958  -2.40355897
C    2.96190906   0.80007970  -1.18346953
H    0.95353967   1.11257958   0.25257990
H    3.02220893   0.22866991   0.91005963
H    2.12238932  -2.20315933   0.04714998
H    3.82087874  -1.72288930  -0.19666992
H    3.21173882  -2.26270914  -2.42342901
H    1.56092942  -1.63687932  -2.23448920
H    3.96273851  -0.08642997  -2.97391891
H    2.37146902   1.90903926  -3.02822900
H    1.04867959   0.85940969  -2.35906911
H    3.79866838   1.44715941  -0.96036965

