%chk=mol_0906.chk
# wB97XD/Def2SVP opt pop=full gfinput

C 4 H 2 O 2

1 2
O    1.788815   0.078669   0.000000
C    4.096964   0.022393   0.000000
C    5.553489   2.322606   0.000000
C    6.755299   4.247594   0.000000
C    8.182401   6.566156   0.000000
O    7.118409   8.615224   0.000000
H    5.196577  -1.744463   0.000000
H   10.252652   6.353996   0.000000

