%chk=mol_5502.chk
# wB97XD/Def2SVP opt freq pop=full gfinput

C 5 H 9 N 1 O 1

1 2
N    1.01717961   0.03892999   0.20681992
C    2.44826913  -0.06243998  -0.04356998
C    2.83627892  -1.48678946  -0.48589984
C    2.66622901  -1.49465954  -2.01204920
C    3.02345896  -0.09592997  -2.41022921
O    1.97154927   0.86558968  -2.33862901
C    2.85926890   0.79023969  -1.21541953
H    0.76149970   1.01640964   0.33320987
H    0.77724975  -0.44909984   1.06621957
H    2.99997902   0.22320992   0.85786968
H    2.25960898  -2.27653909   0.00622000
H    3.89459848  -1.65508938  -0.24548991
H    3.32513881  -2.23341918  -2.47763920
H    1.63212943  -1.72497940  -2.29109931
H    3.84572864   0.03470999  -3.09352875
H    3.56221867   1.58274937  -1.02050960

