%chk=mol_5787.chk
# wB97XD/Def2SVP opt freq pop=full gfinput

C 5 H 11 N 1 O 1

1 2
N    1.06414962  -0.12082995   0.10820996
C    2.52636909  -0.07073997  -0.04625998
C    3.01715899   1.38553953   0.06419998
O    2.51949906   1.93046927   1.29486954
C    4.54947805   1.45689952   0.04507998
C    5.04583788   2.87397885  -0.07575997
C    5.82609749   3.32034874  -1.06767952
H    0.75980973  -1.09331954   0.04477998
H    0.62640977   0.35788989  -0.68062979
H    2.81696892  -0.50709981  -1.00751960
H    2.96636891  -0.67465973   0.75505972
H    2.59399891   1.98057926  -0.75463974
H    1.63618934   1.51948941   1.40274942
H    4.93794823   0.85269970  -0.78342968
H    4.95284843   1.04038966   0.97615963
H    4.73772860   3.56032872   0.71186978
H    6.16081762   2.67243886  -1.87142932
H    6.14942789   4.35745859  -1.09161961

