%chk=mol_6196.chk
# wB97XD/Def2SVP opt freq pop=full gfinput

C 5 H 3 N 1 O 1

1 2
O    2.23220921   0.85709965   0.83971971
C    2.28283906   0.05596998  -0.08989996
C    2.96858907  -1.28344953   0.00000000
C    2.03078914  -2.38147926   0.00000000
C    1.25783956  -3.28647876   0.00000000
C    1.69614947   0.37785986  -1.37828946
N    1.24984944   0.61554974  -2.42538905
H    3.56513858  -1.29347956   0.91968966
H    3.67921877  -1.36799943  -0.83013970
H    0.56582975  -4.09835863   0.00074000

