%chk=mol_0716.chk
# wB97XD/Def2SVP opt freq pop=full gfinput

C 5 H 6 O 1

1 2
C    1.00096965  -0.05421998   0.00304000
C    2.51999903   0.00000000   0.00000000
C    3.00201893   1.36116946   0.00000000
C    3.39929867   2.48306894   0.00000000
C    3.89675856   3.83653855   0.00000000
O    3.13200879   4.78962851   0.00001000
H    0.65761971  -1.09362960   0.00217000
H    0.58495975   0.44200984  -0.88069969
H    0.58864981   0.43929982   0.89001966
H    2.89561892  -0.53274983  -0.88082963
H    2.89922881  -0.53413981   0.87843966
H    4.99326849   3.94062853  -0.00000000

