%chk=mol_2604.chk
# wB97XD/Def2SVP opt freq pop=full gfinput

C 6 H 6 O 1

1 2
C    0.99999964   0.00000000   0.00000000
C    2.19015908   0.00000000   0.00000000
C    3.63415861   0.00000000   0.00000000
C    4.21861839  -1.24554944  -0.68789977
C    4.70201826  -0.68475974  -1.97284937
C    4.61989832   0.63825977  -1.90635931
O    4.11436844   1.15844953  -0.73314977
H   -0.06557997   0.00870000  -0.00533000
H    4.01105833   0.07549997   1.02656960
H    3.48808861  -2.04872918  -0.82829970
H    5.06733799  -1.64452934  -0.12081996
H    5.08480787  -1.25435948  -2.80524898
H    4.91320801   1.37096953  -2.63873911

