%chk=mol_3862.chk
# wB97XD/Def2SVP opt freq pop=full gfinput

C 4 H 6 N 2 O 1

1 2
C    0.73506975  -1.24531949   0.60973978
N   -0.55322981  -1.51465940  -0.04381999
N   -1.57730949  -0.61297977   0.04218999
C   -1.27022946   0.65040976   0.05938998
C    0.12160996   1.14681959   0.05500998
O    0.96093965   0.64226973  -1.00450957
C    1.19696951   0.14175993   0.31895986
H    1.47820938  -1.97316933   0.26987988
H    0.62144977  -1.37352955   1.69137931
H   -0.36977986  -1.71030939  -1.03252959
H   -2.07743931   1.39901948   0.10002996
H    0.27691990   2.16773915   0.37417984
H    2.09928918   0.43252984   0.83317965

