%chk=mol_6618.chk
# wB97XD/Def2SVP opt freq pop=full gfinput

C 4 H 5 N 1 O 1 S 1

1 2
C    3.03155875  -1.06507969   0.53599977
O    2.25021911   0.09284996   0.26782990
C    3.01237869   1.20517957   0.15333994
C    2.40713906   2.41653919  -0.10708997
S    3.58939862   3.65375876  -0.20278993
C    4.80225801   2.48169923   0.10852996
N    4.38769865   1.24544954   0.27667990
H    2.35144901  -1.91869926   0.61483973
H    3.56421876  -0.97102964   1.48890948
H    3.73178864  -1.26808953  -0.28195989
H    1.35550952   2.62176895  -0.24098991
H    5.84850788   2.75257897   0.16205995

