%chk=mol_1354.chk
# wB97XD/Def2SVP opt freq pop=full gfinput

C 7 H 10

1 2
C    0.94637960   0.06025998  -0.00496000
C    2.42915893   0.03750999  -0.00028000
C    3.27763867   1.07995963  -0.00291000
C    4.63458824   0.59186977   0.00392000
C    4.62655830  -0.75016975   0.01096000
C    5.78518772  -1.67572939   0.01983999
C    3.20702887  -1.25120950   0.00907000
H    0.56087977   1.08487964  -0.00284000
H    0.55435979  -0.44965982   0.88038969
H    0.56014979  -0.44421983  -0.89593971
H    3.01213884   2.12631917  -0.00918000
H    5.50466824   1.23051953   0.00360000
H    6.73443747  -1.13038957   0.01608999
H    5.76377773  -2.32205892  -0.86295968
H    5.76204777  -2.30719924   0.91328967
H    2.99814892  -1.84622931  -0.88543969
H    2.99241900  -1.83652937   0.90864968

