%chk=mol_4322.chk
# wB97XD/Def2SVP opt freq pop=full gfinput

C 5 H 9 N 1 O 1

1 2
C    0.97374964   0.03601999  -0.08633997
C    2.47171903  -0.08353996   0.00901000
C    2.98933887  -1.48888946  -0.13690995
C    3.22961879   1.01036966   0.21709992
C    4.71308804   1.03802967   0.25719991
N    5.21335793   2.10436916   0.93908966
O    5.44263792   0.21477993  -0.27113992
H    0.63227975   1.07306957   0.00172000
H    0.49394980  -0.54026979   0.71181977
H    0.62429976  -0.34690988  -1.05112958
H    2.35746908  -2.18400908   0.42793983
H    4.00239849  -1.62109947   0.24904992
H    2.97176886  -1.79040933  -1.18911958
H    2.75348902   1.97891927   0.32854986
H    4.64354801   2.77379918   1.43340945
H    6.21941757   2.16740918   1.01989961

