%chk=mol_5107.chk
# wB97XD/Def2SVP opt freq pop=full gfinput

C 5 H 11 N 1 O 1

1 2
C    1.34572959  -0.71324974   0.23749991
N    2.74444890  -0.30557987   0.25407991
C    2.89502883   1.05077958  -0.26641989
C    4.33205843   1.46137941  -0.17652994
C    5.05818796   1.84543931  -1.23696947
O    6.35798788   2.26257920  -1.28851950
C    7.06761742   2.33243918  -0.05676998
H    1.26023948  -1.73977935   0.60805982
H    0.92935961  -0.68590975  -0.77519971
H    0.74083972  -0.07615997   0.89070970
H    3.28228879  -0.94035965  -0.33586988
H    2.30206919   1.75284934   0.33215988
H    2.53492904   1.10572958  -1.30118954
H    4.75656843   1.45042944   0.82150972
H    4.64921808   1.86410928  -2.24186921
H    8.07584667   2.69883895  -0.26979989
H    7.15685749   1.34137952   0.40047982
H    6.59062767   3.03895879   0.63074976

