%chk=mol_3986.chk
# wB97XD/Def2SVP opt pop=full gfinput

C 5 H 11 N 1 O 1

1 2
C    1.791215   0.006633   0.295610
C    4.645646  -0.112647  -0.086833
C    5.363383   0.026664  -2.880339
N    5.986841   1.872775   1.386435
C    7.847088  -0.015987   2.265177
C    6.003452  -2.156008   1.551560
O    7.031387  -4.347787   0.290394
H    1.277153   0.007068   2.302272
H    0.871258  -1.628604  -0.580165
H    0.991275   1.715286  -0.557677
H    7.414567   0.053819  -3.162513
H    4.592148   1.733843  -3.762520
H    4.614107  -1.607307  -3.907160
H    4.940557   2.621050   2.824347
H    9.612092   0.003080   1.182628
H    8.314965   0.114952   4.275354
H    4.876060  -2.771718   3.181297
H    8.154678  -3.683832  -1.003218

