%chk=mol_1117.chk
# wB97XD/Def2SVP opt freq pop=full gfinput

C 4 H 7 N 1 O 1

1 2
O    1.34249949  -0.39090985  -0.82784969
C    2.04453921   0.08047996   0.07006997
C    2.99718904   1.29926956  -0.06017998
C    2.37656903   2.71070886   0.01400999
C    3.60709858   3.06277895   0.86246973
N    3.71771860   1.62801933   1.20911956
H    2.02490926  -0.39056984   1.06767952
H    3.68302870   1.18231952  -0.91044968
H    1.42557955   2.76459908   0.55760974
H    2.28101921   3.24611878  -0.93399960
H    4.45694828   3.44297886   0.28382990
H    3.42428875   3.72811866   1.71009934
H    4.67568827   1.28208947   1.25643945

