%chk=mol_6326.chk
# wB97XD/Def2SVP opt pop=full gfinput

C 4 H 6 N 2 O 1

1 2
O    2.073332  -0.418234  -1.081887
N    4.536949  -0.133434  -0.250351
C    5.606383   2.189928   0.068616
C    8.008584   2.348835   0.838717
C    9.532573  -0.005405   1.351173
N    8.227678  -2.440241   0.888096
C    5.912651  -2.297624   0.134851
H    1.133685  -0.551309   0.495826
H    4.423225   3.806815  -0.349977
H    8.915633   4.168509   1.094000
H   11.231455   0.040138   0.168526
H   10.153347   0.024245   3.326088
H    4.838776  -4.040518  -0.254433

