%chk=mol_5588.chk
# wB97XD/Def2SVP opt freq pop=full gfinput

C 4 H 9 N 1 O 2

1 2
N    0.92088962  -0.10346996   0.15420994
C    2.38453889  -0.03471998  -0.10807996
C    2.72159910  -0.00486000  -1.58172941
O    1.94936931   1.01181960  -2.22031927
C    3.01222897   1.03020966   0.81516969
O    3.30947876   0.01067000   1.81655931
C    3.12479901  -1.02572966   0.81129968
H    0.69806975   0.00151000   1.14909959
H    0.50012982  -0.99475962  -0.11404996
H    2.47992897  -0.95928967  -2.06181908
H    3.78119850   0.20388992  -1.75771940
H    1.07900965   0.99319965  -1.77236938
H    2.34814906   1.80724931   1.20576966
H    3.93606853   1.49394941   0.45319980
H    4.09200859  -1.38452947   0.44382983
H    2.54819894  -1.87224925   1.19563949

