%chk=mol_0945.chk
# wB97XD/Def2SVP opt freq pop=full gfinput

C 4 H 5 N 1 O 1

1 2
C    0.99097961  -0.03584999  -0.00657000
C    2.45693922   0.08795997  -0.00008000
C    3.34523892   1.13795960   0.00130000
N    4.63194799   0.66304970   0.00833000
C    4.47644854  -0.64156979   0.01083000
O    3.18402886  -1.07063961   0.00596000
H    0.51406980   0.94867963   0.00221000
H    0.64868975  -0.58798975   0.87371969
H    0.65528977  -0.56918979  -0.90086967
H    3.12977886   2.19741917  -0.00235000
H    5.23921824  -1.40656948   0.01612999

