%chk=mol_4833.chk
# wB97XD/Def2SVP opt pop=full gfinput

C 5 H 5 N 1 O 1

1 2
C    6.226383  -2.509008   0.732779
C    4.793649  -0.077800   0.366267
O    2.470949  -0.023867   0.337883
C    6.186245   2.336533   0.026702
C    8.710163   2.538809   0.016781
C    9.919286   4.911890  -0.318192
N   10.917061   6.843398  -0.590672
H    7.380023  -2.405111   2.443038
H    7.400848  -2.899558  -0.920920
H    4.882599  -4.065462   0.953575
H    4.974383   3.977722  -0.220947
H    9.944211   0.924246   0.260442

