%chk=mol_6303.chk
# wB97XD/Def2SVP opt pop=full gfinput

C 6 H 11 N 1

1 2
C    1.665699   0.176330   0.355930
C    4.519658   0.145377  -0.027269
C    5.975522   2.006303   1.715512
C    7.742019  -0.225388   2.268559
N    5.742424  -1.949517   1.379538
C    5.312360   0.209892  -2.740443
C    4.829856  -1.702832  -4.329457
H    1.162616   0.112590   2.365314
H    0.747613  -1.441748  -0.554332
H    0.835429   1.903219  -0.430687
H    4.917408   2.653572   3.376978
H    6.863032   3.649118   0.827813
H    9.454772  -0.260574   1.103921
H    8.276434  -0.468936   4.249389
H    6.377599  -3.396858   0.283157
H    6.280429   1.884605  -3.428984
H    3.840112  -3.396197  -3.726956
H    5.410002  -1.599615  -6.294810

