%chk=mol_5610.chk
# wB97XD/Def2SVP opt freq pop=full gfinput

C 5 H 7 N 1 O 1

1 2
N    2.21052909  -0.45018983  -1.32385945
C    2.49675894   0.01358000   0.03099999
C    2.87105894   1.44959950   0.02370999
C    2.14285922   2.61899900  -0.05484998
C    3.08150864   3.67783856  -0.01998999
C    4.32019854   3.08841872   0.07430997
O    4.20391846   1.73574936   0.10016996
H    2.09701920  -1.46123946  -1.30699944
H    3.03267884  -0.26664990  -1.89933932
H    3.30735874  -0.58636981   0.45914981
H    1.61168933  -0.13624996   0.65816975
H    1.06719959   2.68906903  -0.13614996
H    2.88052893   4.73865843  -0.06441998
H    5.32972765   3.47101855   0.12713996

