%chk=mol_5251.chk
# wB97XD/Def2SVP opt freq pop=full gfinput

C 4 H 6 N 2 O 1

1 2
C    1.34420955  -0.04078998   0.04845998
N    2.26847935   0.77126974   0.83769965
N    3.08244896   1.55485940  -0.01193000
C    4.36924839   1.14836955  -0.31894988
O    4.87163782   0.08915997   0.03680998
C    5.13628817   2.08092928  -1.11519957
C    5.77527761   2.85523891  -1.77498937
H    0.72406971  -0.64361978   0.71889973
H    1.88076937  -0.72108978  -0.62143981
H    0.67706972   0.59155977  -0.54628980
H    2.89002895   0.13041995   1.35009956
H    2.77322912   2.48861909  -0.26863989
H    6.35414791   3.53277874  -2.35842896

