%chk=mol_4817.chk
# wB97XD/Def2SVP opt freq pop=full gfinput

C 5 H 11 N 1 O 1

1 2
C    0.94849968   0.80085969   1.07177961
C    2.45402908   0.64286977   1.13007951
O    3.03752899   1.46654940   0.12606995
C    4.48120832   1.43911946   0.05394998
C    5.13680792   2.42848897  -0.93297964
N    6.20043755   2.68824887   0.06843998
C    5.26632786   2.23169923   1.12373960
H    0.46126986   0.17646994   1.82536924
H    0.56980979   0.52300984   0.08305997
H    0.66449976   1.84463930   1.23995948
H    2.73152900  -0.40102986   0.94868964
H    2.82701898   0.94514966   2.11441922
H    4.85092831   0.41306984  -0.08172997
H    4.53053808   3.31159878  -1.16584957
H    5.49389791   1.99187922  -1.87043929
H    7.01227713   2.08027911  -0.04384999
H    5.72936821   1.62885940   1.90985918
H    4.70317793   3.04702902   1.59212935

