%chk=mol_7109.chk
# wB97XD/Def2SVP opt pop=full gfinput

C 6 H 9 N 1

1 2
C    1.827800   0.001701  -0.000302
C    4.663051  -0.027647   0.002116
C    5.954055  -2.209959   0.016460
C    6.018778   2.300987   0.000000
C    7.143316   4.248747   0.000000
C    8.507698   6.611925   0.000000
N    6.752540   8.728645  -0.090839
H    1.087991   1.933776   0.080502
H    1.083928  -1.019224   1.639205
H    1.092772  -0.878628  -1.723600
H    4.986005  -4.017803   0.022507
H    8.005919  -2.246393   0.023981
H    9.782697   6.710399  -1.627168
H    9.670862   6.774064   1.703153
H    5.696901   8.589675  -1.694385
H    7.750428  10.365394  -0.235290

