%chk=mol_3982.chk
# wB97XD/Def2SVP opt pop=full gfinput

C 5 H 9 N 1 O 1

1 2
C    1.783807   0.102404  -0.035262
C    4.644607   0.040176   0.029121
C    5.960140   1.892183   1.851667
N    7.792720  -0.122700   2.485425
C    5.888689  -2.045515   1.665283
C    7.125836  -4.331101   0.281701
O    8.699279  -4.234291  -1.431902
H    1.047173  -1.501387  -1.114201
H    1.114636   1.838401  -0.940252
H    0.971678   0.019899   1.866123
H    5.428994   0.138725  -1.892599
H    4.818140   2.491283   3.473525
H    6.788558   3.570864   0.974400
H    9.345754  -0.115972   1.327041
H    4.700750  -2.676759   3.247003
H    6.482668  -6.192330   0.971867

