%chk=mol_1350.chk
# wB97XD/Def2SVP opt freq pop=full gfinput

C 5 H 12 N 2

1 2
C    1.03269958  -0.48557982   1.47654939
C    2.10766912  -0.62192976   0.41179985
C    3.17866898   0.45541984   0.55299979
C    4.23830843   0.27449989  -0.52136981
N    4.09724855   0.84850967  -1.67160928
N    5.30696821  -0.53009981  -0.23510991
C    6.44127798  -0.65547979  -1.11870968
H    0.27154988  -1.26179945   1.34775960
H    0.53815979   0.48902982   1.41304946
H    1.45862949  -0.59102976   2.47965908
H    1.64537930  -0.56118977  -0.58058977
H    2.56467915  -1.61621940   0.48387983
H    3.65325856   0.39845985   1.53908944
H    2.73565888   1.45336938   0.45719984
H    3.22863889   1.39042950  -1.69926941
H    5.46967793  -0.78302968   0.73146975
H    6.12829781  -0.96964961  -2.11900926
H    7.12924719  -1.41222942  -0.73013973
H    6.98229742   0.29331988  -1.19254959

