%chk=mol_4841.chk
# wB97XD/Def2SVP opt freq pop=full gfinput

C 5 H 5 N 1 O 1

1 2
C    0.98714960  -0.01077000   0.00644000
C    2.51999903   0.00000000   0.00000000
O    2.94558907  -0.68924969   1.18755960
C    3.00920868  -0.77618968  -1.15878952
C    3.41019869  -1.40718949  -2.09950924
C    3.00201893   1.36116946   0.00000000
N    3.38622880   2.44615912   0.00000000
H    0.56981981   0.47280982  -0.88498962
H    0.59217978   0.50733984   0.88903970
H    0.59928977  -1.03616965   0.04927998
H    2.75354910  -0.11023995   1.94483924
H    3.77375865  -1.96858919  -2.92975903

