%chk=mol_5375.chk
# wB97XD/Def2SVP opt freq pop=full gfinput

C 5 H 11 N 1 O 1

1 2
C    2.91030908  -0.92794967  -0.57389975
O    3.18283892   0.39828986  -1.00736964
C    3.87995863   1.14410961  -0.00328000
C    4.11214828   2.56835914  -0.51437980
N    4.80145836   3.37439871   0.50233984
C    6.21342754   3.61010861   0.21300991
C    5.18705797   4.69356823   0.00874000
H    2.36192918  -1.44319940  -1.36696959
H    2.29141927  -0.91814971   0.32846987
H    3.84334850  -1.46775949  -0.38602987
H    4.83796787   0.65452975   0.20853993
H    3.27942872   1.16567957   0.91396964
H    3.13748884   3.02246881  -0.73708969
H    4.64385796   2.52507901  -1.47579956
H    6.65763760   3.14734888  -0.65812975
H    6.86431742   3.68686867   1.07527959
H    5.14118767   5.49725819   0.73443973
H    4.91526794   4.96851826  -1.00298965

