%chk=mol_4439.chk
# wB97XD/Def2SVP opt freq pop=full gfinput

C 4 H 10 N 2 O 1

1 2
C    1.04258966  -0.43575984   0.29050991
C    2.40360928  -0.06114998  -0.29258990
C    2.79812884  -1.04629958  -1.39110947
C    2.38807917   1.36993945  -0.82426971
O    2.53854918   1.66326940  -2.00745916
N    2.19622922   2.32905912   0.16496994
N    2.24109936   3.69663858  -0.18051992
H    0.78136969   0.20366992   1.14000952
H    1.04083955  -1.47215950   0.64407974
H    0.24943991  -0.32757989  -0.45762983
H    3.16110897  -0.11179996   0.49964979
H    2.07481933  -1.03819966  -2.21412921
H    2.85468888  -2.06676936  -0.99804962
H    3.77839851  -0.79194969  -1.80878937
H    2.22463918   2.07259917   1.14944947
H    1.32935953   3.93899846  -0.58167976
H    2.87469912   3.77809858  -0.98802960

