%chk=mol_5741.chk
# wB97XD/Def2SVP opt freq pop=full gfinput

C 5 H 7 N 1 O 1

1 2
N    0.08481997   1.21189952   0.44090983
C    1.30051947   0.57831979   0.49435982
C    2.33933926   0.76743972  -0.32739988
C    3.59249878  -0.00643000  -0.12940995
O    3.71879864  -0.86015970   0.73953974
C    4.68213844   0.33463988  -1.08415961
C    5.85923767  -0.30083990  -1.02461958
H   -0.68317974   0.66022974   0.81953973
H   -0.13893995   1.64155948  -0.45262983
H    1.36843944  -0.13360995   1.31853950
H    2.29200912   1.48258948  -1.13692963
H    4.50466824   1.10423958  -1.82480931
H    6.05048800  -1.07455957  -0.28503990
H    6.65952778  -0.05971998  -1.71567941

