%chk=mol_6109.chk
# wB97XD/Def2SVP opt pop=full gfinput

C 4 H 6 N 2 O 1

1 2
O    3.579859  -1.481715  -1.131681
C    3.834009   0.363508   0.255642
C    5.883265   2.325743  -0.068956
C    6.604271   2.781167  -2.803673
C    6.581765   5.599542  -2.841090
N    5.696220   6.686040  -0.841552
N    4.901780   4.804043   0.697857
H    2.666800   0.546301   1.975406
H    7.519069   1.810263   1.088539
H    5.253609   2.077319  -4.200162
H    8.501935   2.098314  -3.249686
H    7.290866   6.642255  -4.491973
H    5.207613   5.209446   2.560881

