%chk=mol_2135.chk
# wB97XD/Def2SVP opt freq pop=full gfinput

C 5 H 8 N 2

1 2
N    1.13252962   0.12456995   0.48309982
N    2.36273909   0.07938997  -0.07925997
C    2.98937869   1.21829951  -0.14382994
C    4.36478853   1.28670955  -0.76577973
C    4.61364841   2.75576901  -0.66964978
C    3.62139869   3.42657876  -0.07503998
C    2.48736906   2.55586910   0.35795987
H    0.81249970  -0.83195972   0.65858978
H    0.44960985   0.50183982  -0.18064992
H    4.33727837   0.94046962  -1.80081928
H    5.08251858   0.71100974  -0.17606995
H    5.51658821   3.21864867  -1.04812968
H    3.62473845   4.49676800   0.08588997
H    2.37744904   2.54666924   1.44527936
H    1.55369949   2.83541894  -0.13572995

