%chk=mol_4290.chk
# wB97XD/Def2SVP opt freq pop=full gfinput

C 4 H 4 N 2 O 1

1 2
C    2.89580894  -1.09807956   0.41960984
C    2.29987907   0.05879998   0.10116997
C    3.01497889   1.28298950   0.01807999
N    2.49709916   2.46560907  -0.29021990
N    3.51335883   3.39577866  -0.26411989
C    4.59321833   2.73249912   0.05772998
O    4.37675858   1.40739942   0.25284991
H    2.31836915  -2.01569915   0.47406980
H    3.95836854  -1.16712964   0.63237971
H    1.23537958   0.09133997  -0.10546996
H    5.60101748   3.09681892   0.18298994

