%chk=mol_2311.chk
# wB97XD/Def2SVP opt pop=full gfinput

C 6 H 12 O 1

1 2
C    1.734391  -0.060263   0.218471
C    4.605338  -0.033751  -0.067010
C    5.372623   0.086946  -2.851691
C    5.945267   1.985479   1.604245
C    7.945580  -0.021940   2.273907
C    5.982098  -2.070781   1.582740
O    6.911201  -4.291852   0.318948
H    1.163977  -0.102310   2.207748
H    0.919049  -1.723846  -0.703621
H    0.891932   1.625580  -0.637253
H    7.427625   0.153597  -3.088701
H    4.589408   1.775870  -3.756964
H    4.673274  -1.568208  -3.879646
H    4.844124   2.610071   3.245737
H    6.663760   3.660003   0.628051
H    9.615683   0.008995   1.050839
H    8.568888  -0.015420   4.243947
H    4.872243  -2.646353   3.239784
H    8.070737  -3.689539  -0.970998

