%chk=mol_3524.chk
# wB97XD/Def2SVP opt freq pop=full gfinput

C 6 H 8 O 1

1 2
O    0.99545962  -0.12395996   0.09057997
C    2.20632935  -0.04055998   0.03958999
C    3.20426893  -1.19183958   0.07076998
C    4.52693844  -0.38356987  -0.02447999
C    4.31089830   0.71944976  -1.13087952
C    3.22930884   1.18095946  -0.07371997
C    4.38516855   0.84727967   0.95253968
H    3.06931877  -1.84431934  -0.79452968
H    3.13488889  -1.73801935   1.01396966
H    5.46546793  -0.93717963  -0.02424999
H    3.92708850   0.36975986  -2.09350920
H    5.14615822   1.40662944  -1.30630946
H    2.83306885   2.19153905  -0.12140995
H    5.22791815   1.54699945   0.98314965
H    4.07236862   0.61878973   1.97544920

