%chk=mol_1499.chk
# wB97XD/Def2SVP opt pop=full gfinput

C 7 H 12

1 2
C    2.763762  -0.425169  -0.836317
C    5.342634   0.119091   0.190031
C    6.863448  -2.023972   1.309165
C    7.652143  -0.850433  -1.156607
C    9.584181   1.226716  -1.237260
C    8.047210   3.632602  -0.754889
C    5.892960   2.804524   0.998834
H    2.134937   1.088955  -2.096727
H    1.404539  -0.582735   0.713561
H    2.719732  -2.194369  -1.908151
H    6.076036  -3.915853   1.254835
H    7.991765  -1.660672   2.980627
H    7.448469  -1.895868  -2.898103
H   11.006993   0.954350   0.242055
H   10.550398   1.312339  -3.063359
H    9.186583   5.159841   0.045335
H    7.248876   4.301394  -2.548239
H    6.501225   2.853997   2.977604
H    4.258384   4.055976   0.800223

