%chk=mol_2875.chk
# wB97XD/Def2SVP opt pop=full gfinput

C 6 H 14 O 1

1 2
C    4.749543  -1.501369  -2.250531
C    4.066917   0.114499   0.035716
C    5.167059   2.823194  -0.010734
C    4.087213   4.312676  -2.261038
C    4.435773   4.227034   2.424537
O    7.854968   2.833909  -0.387243
C    9.362176   1.744935   1.546854
H    4.033979  -3.424694  -1.989466
H    6.795417  -1.618645  -2.517399
H    3.902851  -0.755626  -3.981577
H    4.730967  -0.880499   1.728287
H    2.000426   0.201426   0.194850
H    4.735408   3.535848  -4.067296
H    4.749657   6.276914  -2.221713
H    2.017207   4.327719  -2.250513
H    5.014861   3.175931   4.109871
H    2.389143   4.512912   2.545726
H    5.365518   6.074619   2.519931
H   11.334426   1.827422   0.932996
H    8.882185  -0.238937   1.861286
H    9.209032   2.814180   3.306737

