%chk=mol_2663.chk
# wB97XD/Def2SVP opt freq pop=full gfinput

C 5 H 6 O 2

1 2
C    1.03360963   0.21311991   0.69999975
C    2.15330911   0.24552990  -0.03441999
C    3.30285883   1.12877953   0.18493994
O    3.94065857   1.81942928  -0.90377969
C    3.13518882   2.61463904  -0.02300999
C    3.89431834   3.55643845   0.81444967
O    3.44453883   3.95404863   1.88227928
H    0.23289990  -0.48091984   0.46395981
H    0.89195967   0.87691963   1.54765940
H    2.24081922  -0.44543985  -0.87129968
H    3.95218849   0.80238968   0.99183965
H    2.19029927   2.98338890  -0.40134984
H    4.87252808   3.88944840   0.42923984

