%chk=mol_4121.chk
# wB97XD/Def2SVP opt freq pop=full gfinput

C 4 H 8 N 2 O 1

1 2
C    0.90808970  -0.04496998   0.14101994
C    2.40454912   0.01285999  -0.06106998
N    2.77772880   0.10459996  -1.49321949
C    3.20578861   1.07143950   0.75668973
N    4.12971830  -0.00942000   1.13728952
C    3.26440883  -1.00169957   0.76925975
O    3.25545883  -2.16605926   1.08466959
H    0.65012974  -0.08912997   1.20475948
H    0.47891980  -0.93134964  -0.33905989
H    0.41657984   0.83883971  -0.28038990
H    3.78402853   0.02212999  -1.64691937
H    2.48885894   0.96927965  -1.94579923
H    2.69340897   1.49297953   1.62807941
H    3.69644856   1.87140930   0.19505993
H    4.63555861  -0.14010994   2.00293922

