%chk=mol_4638.chk
# wB97XD/Def2SVP opt freq pop=full gfinput

C 4 H 7 N 1 O 2

1 2
C    0.77030969  -3.31996894  -1.54837942
C    0.42102984  -2.51952910  -0.53241980
C    0.71846974  -1.05526960  -0.46122980
O    1.42798936  -0.81310970   0.75819975
N    1.74758935   0.56377977   0.82227969
C    1.14666963   1.23540962   1.84857929
O    1.53111947   2.31936908   2.26697922
H    0.52176982  -4.37721825  -1.53181946
H    1.31228948  -2.94725895  -2.41205907
H   -0.11872996  -2.94257903   0.31151989
H   -0.22225992  -0.49308982  -0.45276985
H    1.32707953  -0.72697973  -1.31204951
H    2.71255898   0.81320971   0.63331974
H    0.25459990   0.72293973   2.24439931

