%chk=mol_6382.chk
# wB97XD/Def2SVP opt pop=full gfinput

C 4 H 5 N 1 O 2

1 2
O    1.597707   2.378315   0.526629
N    4.049362   3.367870   0.430914
C    5.638168   1.519189   0.214352
C    8.405766   1.897512   0.083356
C    9.905643  -0.146813   0.048169
C    9.534368   4.463363   0.008598
O   11.815418   4.849869  -0.137251
H    0.563119   3.886297   0.768438
H    4.974704  -0.461207   0.128898
H    9.166344  -2.056268   0.114593
H   11.948304   0.047527  -0.031558
H    8.173236   6.037769   0.085057

