%chk=mol_4503.chk
# wB97XD/Def2SVP opt freq pop=full gfinput

C 5 H 13 N 1 O 1

1 2
C    2.94657898  -0.90085965  -0.90320969
C    2.46604896   0.01227000   0.21595992
C    2.97592878   1.46013939   0.08174997
N    2.39635921   2.27516913   1.16594958
C    4.51469851   1.57438934   0.12840995
O    5.01557779   0.96875966   1.32725954
C    6.43069744   1.07055962   1.40985942
H    2.47814918  -1.88605940  -0.80975974
H    4.02982855  -1.04653966  -0.86642969
H    2.68281913  -0.49259982  -1.88359928
H    2.76439905  -0.41684985   1.18038964
H    1.36801946   0.01363999   0.20247993
H    2.62567902   1.87675929  -0.86879969
H    2.86048889   1.99954927   2.03527927
H    1.41276944   2.04124928   1.28668952
H    4.81208849   2.63054919   0.10307996
H    4.95943832   1.07885957  -0.74314970
H    6.75454760   0.60531980   2.34428906
H    6.74068737   2.11964917   1.41575944
H    6.90065765   0.54231983   0.57511979

