%chk=mol_3695.chk
# wB97XD/Def2SVP opt freq pop=full gfinput

C 6 H 10 O 1

1 2
O    2.84169888  -0.53381979  -1.20044959
C    2.23756909   0.09340996  -0.07716997
C    2.69169903   1.53214931  -0.01094000
C    1.79942942   2.53270888  -0.12139995
C    4.14607859   1.75815928   0.12451995
C    4.66438818   2.71142912   1.17299962
C    4.87303782   1.23591948   1.33748960
H    2.55982900  -1.46277952  -1.18283951
H    2.52978897  -0.44485983   0.83041966
H    1.15061963   0.01239000  -0.18518993
H    0.73877972   2.34424901  -0.24710992
H    2.11917901   3.56998873  -0.10594996
H    4.68076801   1.72035933  -0.82110971
H    3.96458840   3.19550872   1.84384930
H    5.52245808   3.32141876   0.91659969
H    5.87293816   0.84308964   1.19001961
H    4.31490850   0.73543972   2.11954927

