%chk=mol_1356.chk
# wB97XD/Def2SVP opt pop=full gfinput

C 6 H 11 N 1

1 2
C    4.680946   6.101453   3.092291
C    5.150543   3.683246   2.508801
C    7.354833   2.181179   3.478362
N    8.833563   1.164147   1.373491
C   10.574757   3.113210   0.328699
C   12.603169   1.032282   0.188595
C   11.080107  -0.218585   2.333207
H    3.041703   7.063097   2.315557
H    5.911158   7.172248   4.334786
H    3.863470   2.690573   1.249978
H    6.587604   0.598325   4.576936
H    8.499818   3.309780   4.792043
H   11.077348   4.669211   1.604245
H    9.997974   3.901396  -1.493262
H   12.602319  -0.036113  -1.587011
H   14.533638   1.601203   0.648705
H   10.938907  -2.277555   2.224056
H   11.733329   0.309443   4.229188

