%chk=mol_4019.chk
# wB97XD/Def2SVP opt freq pop=full gfinput

C 4 H 5 N 1 O 2

1 2
C    0.97583961   0.02351999   0.02222999
C    2.44690895   0.06178998  -0.06846998
C    3.30328870   1.08041966  -0.13024995
N    4.60076857   0.66990972  -0.21102992
O    4.61203814  -0.72787976  -0.06322998
C    3.29753876  -1.14698958  -0.03244999
O    2.90454888  -2.29607916   0.05468998
H    0.55243981   1.03272963   0.04878998
H    0.65799975  -0.49866980   0.92994964
H    0.55219978  -0.49706981  -0.84211969
H    3.07538891   2.13790917  -0.11644995
H    5.24411774   1.15109956   0.41734985

