%chk=mol_5912.chk
# wB97XD/Def2SVP opt freq pop=full gfinput

C 4 H 8 N 2 O 1

1 2
N    0.84554970   1.04969966  -0.64342976
N    2.16325903   0.95245969  -0.93434966
C    2.92402887   1.17823946   0.09477997
C    4.44297838   1.14052963  -0.03406999
O    4.84010839   0.29027990  -1.09688950
C    4.93894768   2.54518890  -0.24854991
C    5.62019777   2.99796891  -1.31097949
H    0.30052987   0.65390980  -1.41545951
H    0.55412978   2.03119922  -0.60791975
H    2.51871920   1.43075955   1.09277952
H    4.85727835   0.74130970   0.89676964
H    4.12698841   0.36764985  -1.76120937
H    4.72064829   3.24933887   0.55216980
H    5.88398790   2.34607911  -2.13911915
H    5.93892765   4.03363848  -1.37121940

