%chk=mol_3892.chk
# wB97XD/Def2SVP opt pop=full gfinput

C 5 H 11 N 1 O 1

1 2
C    1.995211   0.055615  -0.160835
C    4.814588   0.069183  -0.185477
C    6.233337  -1.183554  -2.302423
C    6.315087   1.666927  -2.031796
N    4.921830   3.179785  -3.926832
C    8.752493   2.855489  -1.073931
O   10.272419   3.562020  -3.185341
H    1.284296   1.739077   0.806875
H    1.309580  -1.607099   0.860865
H    1.181627   0.004535  -2.061786
H    5.558478  -0.134454   1.714586
H    5.154455  -2.007343  -3.837335
H    7.899943  -2.271148  -1.811151
H    4.449512   2.114056  -5.457775
H    6.091759   4.563008  -4.607871
H    9.842847   1.563257   0.118580
H    8.335223   4.559928   0.021089
H   10.448484   2.050353  -4.214656

