%chk=mol_2389.chk
# wB97XD/Def2SVP opt freq pop=full gfinput

C 5 H 10 O 2

1 2
C    0.84304965   0.00205000  -0.20704992
C    2.32412910  -0.00158000   0.07206997
C    2.65948892   0.00846000   1.54293942
C    3.25459886  -0.76399970  -0.84679967
O    2.64892888  -1.46964943  -1.94245934
C    3.22073889   0.74412978  -0.89350969
O    4.33913851   1.43808949  -0.31595987
H    0.61860979   0.09484997  -1.27452946
H    0.36341989   0.84332967   0.30358991
H    0.38732985  -0.92502964   0.15489995
H    3.73585868  -0.07902997   1.72708941
H    2.17061901  -0.83035964   2.04905939
H    2.31317925   0.93877965   2.00429916
H    4.12040854  -1.23897958  -0.39572987
H    2.35861897  -0.87378967  -2.65356898
H    2.75359893   1.21811962  -1.75091934
H    5.15751839   0.91570961  -0.37448987

