%chk=mol_5242.chk
# wB97XD/Def2SVP opt pop=full gfinput

C 4 H 10 N 2 O 1

1 2
C    5.204589  -1.360282   1.155738
N    5.630420   0.439853  -0.892140
N    6.285059   2.858815   0.059734
C    4.265169   4.609156   0.703545
C    8.744614   3.788863  -0.197835
C   10.706055   1.946267  -1.144588
O    9.319902   5.991622   0.294041
H    4.789738  -3.221964   0.357574
H    3.604029  -0.803474   2.341768
H    6.884933  -1.549689   2.347720
H    4.034282   0.595623  -1.968792
H    2.602625   3.583922   1.377478
H    3.779055   5.702816  -0.982317
H    4.903858   5.906925   2.180536
H   10.714067   0.229772   0.003968
H   12.578055   2.812933  -1.001234
H   10.345192   1.487630  -3.126457

