%chk=mol_1359.chk
# wB97XD/Def2SVP opt freq pop=full gfinput

C 6 H 13 N 1

1 2
C    1.33739948  -0.78657967   1.52903938
C    2.46443915  -0.70738977   0.50989980
C    2.96724892   0.72724974   0.34479988
N    4.01089859   0.77137971  -0.68008971
C    4.57083845   2.11458921  -0.84896964
C    5.89527798   2.43461919  -0.21666992
C    5.79440784   2.27882910  -1.70589936
H    0.99775964  -1.82087934   1.63809931
H    0.48252982  -0.18032993   1.21396947
H    1.66859937  -0.43151984   2.50966907
H    2.10181928  -1.09546959  -0.45028985
H    3.28684878  -1.35784948   0.83253968
H    3.36389875   1.08766961   1.30072951
H    2.13426924   1.37938952   0.05736998
H    3.63096857   0.43037984  -1.56287944
H    3.84300876   2.92224884  -0.91095966
H    6.40171766   1.65408933   0.33926988
H    6.03867769   3.43087888   0.18338993
H    5.86811781   3.17076898  -2.31629896
H    6.23712778   1.39616942  -2.15207911

