%chk=mol_3736.chk
# wB97XD/Def2SVP opt freq pop=full gfinput

C 6 H 8 O 1

1 2
O    0.93960965   0.06696998   0.01516999
C    2.36327910   0.01639999   0.01585999
C    2.92738891   1.43281937   0.00000000
C    4.37138844   1.43281937   0.00000000
C    5.56154823   1.43281937   0.00000000
C    6.96754742   1.43281937   0.00000000
C    7.66876698   2.57149911   0.00044000
H    0.62365973  -0.85316968   0.02548999
H    2.68907905  -0.54538977  -0.86673963
H    2.68893909  -0.52543980   0.91087967
H    2.54241920   1.98401928   0.86639971
H    2.54242897   1.96447921  -0.87852967
H    7.48310709   0.47716984  -0.00040000
H    7.18165684   3.54186869   0.00082000
H    8.75328636   2.55343890   0.00041000

