%chk=mol_0204.chk
# wB97XD/Def2SVP opt freq pop=full gfinput

C 4 H 10 O 1

1 2
C    1.05219960  -0.09471997   0.02403999
C    2.57145882  -0.04555998   0.05571998
C    3.08700871   1.38733947  -0.04029998
C    4.60880852   1.43942952  -0.00826000
O    5.04709816   2.78911877  -0.08970997
H    0.70496976  -1.13036966   0.09311996
H    0.66518974   0.33192989  -0.90681964
H    0.62409973   0.46379983   0.86252970
H    2.96772885  -0.64027977  -0.77556974
H    2.92680907  -0.50815982   0.98389965
H    2.68637896   1.99213934   0.78277969
H    2.72520900   1.85911930  -0.96229964
H    5.04505825   0.88197964  -0.84348965
H    4.99360800   1.01610959   0.92489970
H    4.72179842   3.15201902  -0.93123960

