%chk=mol_5678.chk
# wB97XD/Def2SVP opt freq pop=full gfinput

C 4 H 9 N 1 O 2

1 2
N    2.83023906  -1.05946958  -0.57197976
C    2.19726920   0.07959997   0.08182997
C    3.19098878   1.20696962   0.17029993
O    4.34812832   0.93404967   0.99520963
C    3.44316888   2.09295917  -1.01944959
C    2.71776891   2.64028907   0.17814994
O    3.47159863   3.53885865   1.01177955
H    2.27380919  -1.89625931  -0.41443983
H    3.73692870  -1.22076952  -0.13127995
H    1.87958932  -0.20163994   1.09172964
H    1.30498958   0.37270987  -0.48134983
H    4.08712864   0.88739967   1.93215930
H    2.87113881   1.90861928  -1.92142928
H    4.46065855   2.41242909  -1.20759952
H    1.65629935   2.83508873   0.06900997
H    4.39737844   3.23802876   1.07792962

