%chk=mol_4643.chk
# wB97XD/Def2SVP opt freq pop=full gfinput

C 4 H 7 N 1 O 2

1 2
C    1.11800957  -0.81246972   0.69886971
C    2.35109901  -0.03798999   0.26942989
C    2.05267930   1.42507946   0.00523000
O    0.94712961   1.93157923   0.15487993
N    3.16377878   2.12272906  -0.41326985
C    3.15252876   3.45015860  -0.73309970
O    4.15172815   4.03895855  -1.12632954
H    1.37000954  -1.86235929   0.87827963
H    0.34155989  -0.77374971  -0.07232998
H    0.69535971  -0.39969984   1.62097943
H    2.76008892  -0.48157984  -0.64535981
H    3.11398888  -0.10064997   1.05406964
H    4.05375862   1.65909934  -0.52639979
H    2.17373919   3.94303846  -0.61058980

