%chk=mol_2325.chk
# wB97XD/Def2SVP opt freq pop=full gfinput

C 6 H 8 O 1

1 2
C    0.89306968  -0.12465996   0.01349000
C    2.23006916  -0.04937998  -0.00720000
C    2.94232893   1.27865958  -0.05722998
C    4.47381830   1.25711954  -0.03551999
C    5.07802773  -0.10252996  -0.00684000
C    4.32622862  -1.20428956   0.01430000
O    2.95881891  -1.23046958   0.01367999
H    0.27272990   0.76483971  -0.00373000
H    0.39342985  -1.08763957   0.04640998
H    2.59845924   1.89221931   0.78685969
H    2.62127900   1.80977941  -0.96327966
H    4.83076811   1.81825936   0.83612967
H    4.85249805   1.79048944  -0.91680968
H    6.15991783  -0.18634993  -0.00152000
H    4.72728825  -2.20919895   0.03624999

