%chk=mol_6590.chk
# wB97XD/Def2SVP opt pop=full gfinput

C 4 H 6 N 2 S 1

1 2
C    1.634670  -0.037209  -0.013398
N    4.354383   0.020088   0.098304
S    5.928354   2.763970  -0.012472
C    8.813097   1.182647  -0.044182
C    8.655191  -1.343142  -0.021694
C    5.946344  -2.034630   0.034223
N    5.332542  -4.396731   0.016100
H    0.791984   1.853273   0.054424
H    0.877929  -1.108532   1.587559
H    1.001101  -0.947849  -1.760261
H   10.579141   2.210677  -0.084187
H   10.159962  -2.705918  -0.041517
H    3.411258  -4.565540   0.063438

