%chk=mol_0108.chk
# wB97XD/Def2SVP opt freq pop=full gfinput

C 3 H 5 N 1 O 1

1 2
N    0.97719961  -0.05310998   0.19734992
C    2.33922911   0.04557998   0.08346996
C    3.05448890   1.17404950   0.06177998
C    4.52346849   1.11721957  -0.05344998
O    5.19934845   2.13741922  -0.10084996
H    0.56979978  -0.86860967  -0.25640988
H    0.46503982   0.80494970   0.00208000
H    2.81891894  -0.93070966   0.02008999
H    2.61104894   2.15893912   0.13234995
H    4.97459841   0.11209996  -0.09825996

