%chk=mol_4753.chk
# wB97XD/Def2SVP opt freq pop=full gfinput

C 4 H 5 N 1 O 2

1 2
C    2.97894883  -1.12590957   0.13268995
C    2.48202896   0.11391996   0.04572998
N    3.18176866   1.31407952  -0.01691999
C    2.46335888   2.50090909  -0.10317996
O    1.24007964   2.61360908  -0.13133995
C    4.56056833   1.40767956   0.00042000
O    5.22553825   2.43826914  -0.05133998
H    2.29510903  -1.97108936   0.17345993
H    4.03238869  -1.37144947   0.16742992
H    1.39573944   0.22166993   0.01948999
H    3.10268903   3.39883876  -0.14799994
H    5.07295799   0.43790984   0.06814998

