%chk=mol_1989.chk
# wB97XD/Def2SVP opt pop=full gfinput

C 5 H 6 N 2

1 2
N    1.889726   0.000000   0.000000
C    4.064820   0.000000   0.000000
C    6.721775   0.000000   0.000000
C    8.189336  -2.049049  -0.111078
C   10.896916  -1.314569  -0.108924
N   10.930969   1.467901  -0.267113
C    8.292591   2.323380   0.084868
H    7.539043  -3.984223  -0.179789
H   11.821390  -1.937215   1.633045
H   11.893785  -2.140890  -1.721900
H   11.491198   1.960289  -2.044703
H    7.774031   3.658812  -1.409188
H    8.113747   3.273592   1.915332

