%chk=mol_4804.chk
# wB97XD/Def2SVP opt freq pop=full gfinput

C 4 H 9 N 1 O 2

1 2
C    2.74878907  -0.53976983   1.55233943
C    2.70654893  -0.23178992   0.06384998
N    3.03468895   1.15862954  -0.22331992
O    1.97005928   2.03284931   0.11724996
C    4.27468824   1.75483942  -0.24870992
C    5.45935774   0.85556972  -0.47552982
O    4.40172863   2.97258902  -0.09728996
H    2.51166916  -1.59356940   1.72812939
H    2.02177930   0.06874997   2.09999919
H    3.73833871  -0.33573985   1.97275925
H    1.70715940  -0.43347985  -0.33671990
H    3.41700864  -0.87962967  -0.45771983
H    2.43404913   2.89410877   0.20628992
H    5.26433802   0.16028993  -1.29541945
H    5.68872786   0.30745986   0.44094983
H    6.32545757   1.46470940  -0.75118971

