%chk=mol_2759.chk
# wB97XD/Def2SVP opt freq pop=full gfinput

C 6 H 8 O 1

1 2
C    0.70553970   0.12170996  -0.03600999
C    2.17931914  -0.02897999  -0.23598991
C    3.09155893   0.79188967   0.30525988
C    4.51177835   0.62869972   0.09794997
C    5.41776800   1.45087945   0.64162976
C    6.85652733   1.23734951   0.39486983
O    7.70280695   1.97615933   0.88233966
H    0.29965991  -0.77871972   0.43494985
H    0.21087992   0.25757992  -1.00272965
H    0.45804983   0.97961968   0.59731978
H    2.48920894  -0.86267972  -0.86192966
H    2.76528907   1.62191939   0.92985964
H    4.82739830  -0.20326993  -0.52950978
H    5.16142797   2.29373908   1.27350962
H    7.12344742   0.38225985  -0.24792992

