%chk=mol_3793.chk
# wB97XD/Def2SVP opt pop=full gfinput

C 5 H 8 O 2

1 2
O    4.279039   3.297931  -1.087537
C    4.930882   2.052054  -3.219111
O    3.473166   1.838949  -5.001633
C    7.516442   0.834201  -3.147225
C    9.517625   2.354995  -1.817274
C   10.303675   1.738189   0.853476
C   12.057832   1.170742  -1.307218
H    5.582629   3.261989   0.216166
H    8.123309   0.564367  -5.109385
H    7.301108  -1.037913  -2.288156
H    9.538884   4.313886  -2.429564
H    9.455585   0.137931   1.813476
H   10.813807   3.283456   2.100487
H   13.725383   2.344016  -1.526218
H   12.354954  -0.792324  -1.817935

