%chk=mol_4578.chk
# wB97XD/Def2SVP opt pop=full gfinput

C 5 H 9 N 1 O 1

1 2
C    0.223800   0.335124  -2.064034
C    2.518703  -0.348277  -0.483978
C    4.189863   1.940522   0.025285
O    6.300574   1.128280   1.499063
C    7.953650   3.166387   2.182785
C    9.520950   4.045904   0.059999
N   10.741336   4.787300  -1.610651
H   -0.944655  -1.339381  -2.393319
H    0.790151   1.094151  -3.903210
H   -0.940195   1.752230  -1.106926
H    3.622454  -1.815592  -1.444790
H    1.911741  -1.178339   1.315287
H    3.127251   3.379548   1.069283
H    4.847336   2.749589  -1.763247
H    9.190287   2.447762   3.678484
H    6.853848   4.718930   3.000148

