%chk=mol_6189.chk
# wB97XD/Def2SVP opt freq pop=full gfinput

C 5 H 5 N 1 O 1

1 2
O    0.85886967   0.20486993  -0.05386998
C    2.07672930   0.09657996  -0.05295998
C    2.93050885   1.25527954  -0.01709999
C    3.65116858   2.21711922   0.01201000
C    4.51137829   3.35986876   0.04876998
C    4.70729828   4.16485834  -1.21089947
N    3.90846848   4.68075800  -0.10813996
H    2.59546900  -0.87445968  -0.07878997
H    5.34702826   3.30620861   0.73959970
H    4.15672827   3.89102864  -2.10276937
H    5.66669798   4.63606834  -1.38144946
H    4.42443848   5.37557793   0.43230984

