%chk=mol_4984.chk
# wB97XD/Def2SVP opt pop=full gfinput

C 4 H 8 N 2 O 1

1 2
C    2.092399  -0.076213   0.348088
N    4.710350   0.032654  -0.392893
C    6.165742   2.345263  -0.342702
C    8.738850   1.513614  -1.329063
N    8.727360  -1.173803  -0.944296
C    6.287289  -2.060331  -0.574798
O    5.702967  -4.281344  -0.444766
H    1.371166  -2.002486   0.172400
H    1.002878   1.188581  -0.866421
H    1.930147   0.532015   2.315009
H    6.285172   2.993251   1.618135
H    5.284751   3.800806  -1.516373
H    8.922210   1.862854  -3.358459
H   10.319398   2.385193  -0.326016
H   10.120844  -2.399555  -1.400797

