%chk=mol_4830.chk
# wB97XD/Def2SVP opt freq pop=full gfinput

C 5 H 5 N 1 O 1

1 2
C    0.97622967  -0.22403991  -0.36258987
C    2.30937910  -0.25840992  -0.31820989
O    3.04600883   0.83093971   0.06799997
C    4.41446829   0.73583972   0.11155996
C    5.17743826   1.77519941   0.46349981
C    6.59215784   1.68425930   0.51196980
N    7.74765730   1.60619938   0.55022979
H    0.40572983  -1.09300959  -0.67136979
H    0.43130982   0.67396975  -0.09072997
H    2.87322903  -1.14154959  -0.58499974
H    4.81999779  -0.23162991  -0.15554994
H    4.72485828   2.72487879   0.72335970

