%chk=mol_5537.chk
# wB97XD/Def2SVP opt pop=full gfinput

C 6 H 9 N 1

1 2
C    2.186886   0.343174  -0.040365
C    4.920166  -0.191373  -0.095979
C    6.257960  -2.172354  -0.922167
C    8.880446  -1.409906  -0.294873
C    9.154986   1.465388  -1.030128
C    6.911635   1.500915   0.932353
N    8.581246  -0.368062   2.399820
H    1.091506  -1.282104  -0.699652
H    1.742309   1.955243  -1.255421
H    1.573915   0.787373   1.883981
H    5.614055  -3.900149  -1.782711
H   10.421160  -2.732374  -0.632643
H    8.704551   1.985271  -2.980627
H   10.907253   2.411895  -0.459468
H    6.379753   3.244849   1.888233
H   10.185378   0.410619   3.122546

