%chk=mol_3736.chk
# wB97XD/Def2SVP opt pop=full gfinput

C 6 H 8 O 1

1 2
O    1.775606   0.126555   0.028667
C    4.465952   0.030992   0.029971
C    5.531965   2.707637   0.000000
C    8.260730   2.707637   0.000000
C   10.509807   2.707637   0.000000
C   13.166761   2.707637   0.000000
C   14.491875   4.859431   0.000831
H    1.178547  -1.612258   0.048169
H    5.081625  -1.030638  -1.637901
H    5.081360  -0.992938   1.721314
H    4.804478   3.749254   1.637259
H    4.804496   3.712329  -1.660181
H   14.141028   0.901721  -0.000756
H   13.571370   6.693164   0.001550
H   16.541321   4.825302   0.000775

