%chk=mol_1634.chk
# wB97XD/Def2SVP opt freq pop=full gfinput

C 6 H 9 N 1

1 2
C    1.00887966   0.00266000   0.15251994
N    2.45306921   0.01750999  -0.04188998
C    3.09586883   1.02358961   0.83678973
C    4.16771841  -0.03274999   1.20510948
C    3.10461879  -1.05955970   0.74082971
C    5.40265799   0.00918000   0.43798983
C    6.41897774   0.04574998  -0.19955993
H    0.57332981  -0.86154968  -0.36047986
H    0.56517977   0.90058964  -0.29087988
H    0.70554978  -0.04040999   1.20531952
H    2.50324893   1.35344946   1.70072937
H    3.45583868   1.91553938   0.31326988
H    4.36893797  -0.08188997   2.28245926
H    3.47174859  -1.89660931   0.13775995
H    2.51469898  -1.47215950   1.57034945
H    7.31457710   0.07964997  -0.77679968

