%chk=mol_5215.chk
# wB97XD/Def2SVP opt freq pop=full gfinput

C 5 H 10 N 2

1 2
C    1.48091948   0.22630991  -0.37381986
C    2.83110905  -0.11338995   0.17058994
C    3.09614873  -1.54872942   0.54379982
N    4.24273825  -1.93436933  -0.29489988
C    5.04156780  -0.73264974  -0.57752979
C    4.05595875   0.39048985  -0.50729978
N    3.63152862   0.97052962   0.76650971
H    1.41724944   1.27164948  -0.69700974
H    0.71326977   0.06390998   0.39034984
H    1.24305952  -0.40521985  -1.23663950
H    2.24460912  -2.20344925   0.33435985
H    3.34902883  -1.63363945   1.60674930
H    4.80710840  -2.64083886   0.17060994
H    5.83295774  -0.60692978   0.16957994
H    5.49854803  -0.80890965  -1.56811941
H    3.97437859   0.99440962  -1.39851952
H    4.19986820   0.61624980   1.53580940

