%chk=mol_2263.chk
# wB97XD/Def2SVP opt pop=full gfinput

C 6 H 10 O 1

1 2
C    1.559137  -0.259837  -0.937947
C    4.266831  -0.020126  -0.046487
C    6.240367  -1.313681  -1.686845
C    6.022879   1.508020  -1.730271
C    4.651977   0.071110   2.846778
C    3.213800   1.820883   4.579128
O    2.575829  -0.800148   4.365267
H    1.424797  -0.321801  -3.003663
H    0.434354   1.351192  -0.291018
H    0.707835  -1.997686  -0.205734
H    5.617268  -2.356016  -3.338012
H    7.877852  -2.140398  -0.771972
H    7.515554   2.597051  -0.843933
H    5.254780   2.387310  -3.414641
H    6.528116  -0.459978   3.497694
H    1.929448   3.183678   3.758155
H    4.120018   2.433419   6.307679

