%chk=mol_1387.chk
# wB97XD/Def2SVP opt pop=full gfinput

C 7 H 10

1 2
C    1.840499   0.117239  -0.003553
C    4.641602   0.046053   0.003836
C    6.264820   2.001163   0.008334
C    8.825437   1.049365   0.010091
C   11.084642   2.712437   0.007616
C    8.773640  -1.488537   0.006161
C    6.087771  -2.400368   0.004932
H    1.132040   2.060482  -0.001550
H    1.091033  -0.837149   1.670801
H    1.100822  -0.830440  -1.685428
H    5.770430   3.980273   0.006709
H   10.557050   4.712429  -0.065706
H   12.277664   2.318732  -1.635974
H   12.204343   2.419927   1.722429
H   10.403509  -2.714592   0.004951
H    5.687055  -3.517215  -1.688489
H    5.685128  -3.516516   1.698372

