%chk=mol_0181.chk
# wB97XD/Def2SVP opt freq pop=full gfinput

C 3 H 6 N 2

1 2
C    0.96918964  -0.02467999  -0.00990000
N    2.42440915   0.01438999   0.01349000
C    2.91577888   1.40086949   0.02975999
C    4.39314842   1.47471941   0.00552000
N    5.55083799   1.54572940  -0.03735999
H    0.63250977  -1.06598961  -0.01178000
H    0.56842977   0.46018982  -0.90599966
H    0.54582977   0.45646983   0.87767965
H    2.79041886  -0.46141982  -0.81217968
H    2.55464911   1.90737927   0.93240964
H    2.52412915   1.94604921  -0.83732969

