%chk=mol_1599.chk
# wB97XD/Def2SVP opt freq pop=full gfinput

C 5 H 8 N 2

1 2
C    1.23453951  -0.50255984  -0.29993990
C    2.74088907  -0.41008985  -0.24562991
N    3.45866871  -1.41883945  -0.61946976
N    3.30013895   0.74186975   0.22533992
C    4.72062826   0.99633962   0.14463994
C    5.01330805   2.31220937   0.73280972
C    5.24920797   3.38868880   1.21239960
H    0.77789968   0.48585981  -0.20172992
H    0.88787967  -1.13964963   0.51866978
H    0.92401969  -0.94383967  -1.25129950
H    2.85770893  -2.19179940  -0.92397970
H    2.71563911   1.56367946   0.31074989
H    5.04548836   0.98178965  -0.90186965
H    5.27598763   0.22084993   0.68363976
H    5.46047783   4.34145832   1.63981938

