%chk=mol_6131.chk
# wB97XD/Def2SVP opt pop=full gfinput

C 4 H 4 N 2 O 1

1 2
O    1.764211  -0.062191   0.015798
C    4.350414  -0.007540  -0.004044
C    5.711603   2.108292  -0.008145
C    4.697803   4.674748   0.007427
N    6.547542   6.279655  -0.002173
C    8.670007   4.749543  -0.023300
N    8.290304   2.318751  -0.027609
H    1.232290  -1.826496   0.013871
H    5.221106  -1.857828  -0.016384
H    2.661566   5.068057   0.024434
H   10.575153   5.588582  -0.035678

