%chk=mol_6550.chk
# wB97XD/Def2SVP opt pop=full gfinput

C 4 H 10 O 2 S 1

1 2
C    2.256295  -0.552461  -0.030217
C    5.124862  -0.450889   0.049530
C    6.090153   2.233770  -0.330154
S    9.462255   2.364406  -0.219057
C   10.101683   5.602320  -0.825565
O   10.252917   1.831995   2.350044
O   10.444743   0.923056  -2.333869
H    1.601127  -2.497670   0.222024
H    1.540032   0.136041  -1.844448
H    1.432204   0.602993   1.474856
H    5.892431  -1.693875  -1.418769
H    5.786738  -1.194288   1.865878
H    5.380731   3.490891   1.150484
H    5.510631   2.966643  -2.176284
H    9.348683   6.093497  -2.681843
H   12.146782   5.869792  -0.800280
H    9.219860   6.744149   0.648346

