%chk=mol_1704.chk
# wB97XD/Def2SVP opt pop=full gfinput

C 5 H 12 N 2

1 2
C    2.225871   2.014902  -1.645857
N    4.570889   2.368280  -0.249557
C    6.618104   3.126287  -1.936043
C    8.935456   3.492119  -0.352680
C   10.788692   1.362719   0.028062
C   11.495317   3.584659  -1.591584
N   13.388539   5.370677  -0.677202
H    0.711558   1.512612  -0.331212
H    2.394737   0.492727  -3.036223
H    1.658216   3.753828  -2.611620
H    5.051332   0.714883   0.615729
H    6.160942   4.917181  -2.870551
H    6.934879   1.692703  -3.399126
H    8.593549   4.769197   1.214773
H   10.451659  -0.425396  -0.916725
H   11.662917   1.166925   1.869279
H   11.577312   3.243734  -3.618315
H   13.322682   5.541414   1.241475
H   13.042379   7.136192  -1.367198

