%chk=mol_3636.chk
# wB97XD/Def2SVP opt pop=full gfinput

C 6 H 6 O 1

1 2
O    1.755197  -0.039873  -0.075117
C    4.069393   0.013833  -0.013965
C    5.531455   2.384324  -0.002154
C    8.064955   2.541663   0.063646
C    8.833638   5.275152   0.052761
C    6.325140   6.599642  -0.029385
C    4.454443   4.890611  -0.059696
H    5.202926  -1.733843   0.036358
H    9.377369   0.981165   0.116596
H    9.970158   5.724339  -1.614393
H    9.879904   5.763174   1.767423
H    6.082405   8.625598  -0.059130
H    2.448745   5.267631  -0.117541

