%chk=mol_7154.chk
# wB97XD/Def2SVP opt pop=full gfinput

C 6 H 13 N 1

1 2
C    3.483162  -1.110479   2.292219
C    5.007339  -0.374525  -0.030500
C    5.656725   2.387159  -0.014135
C    8.028161   3.287519  -0.014948
C    8.670120   6.057650  -0.039741
C   10.206014   6.822043   2.294940
N   10.876167   9.500750   2.213984
H    3.004872  -3.121771   2.223924
H    1.716174  -0.038626   2.400047
H    4.554183  -0.765415   4.028821
H    3.904571  -0.786769  -1.734882
H    6.717806  -1.540391  -0.120810
H    4.071698   3.699082  -0.027949
H    9.614454   1.978770  -0.027647
H    6.947521   7.206943  -0.147002
H    9.761135   6.451166  -1.758277
H   11.941520   5.696636   2.412613
H    9.111144   6.457799   4.014855
H   11.969393   9.847665   0.666809
H   11.959302   9.929490   3.747629

