%chk=mol_2608.chk
# wB97XD/Def2SVP opt freq pop=full gfinput

C 6 H 12 O 1

1 2
C    1.72431934  -0.54562974  -1.15327954
C    2.41112924   0.03935999   0.07149997
C    3.24902868   1.27540946  -0.26726991
C    4.45529842   0.98596966  -1.15562963
C    2.45651913   2.54604888  -0.64333975
C    3.07916880   3.15310884   0.60730976
O    3.70280862   1.90020931   0.96780962
H    1.09140956  -1.39014947  -0.86214966
H    2.45204902  -0.91145962  -1.88354933
H    1.09190953   0.19657993  -1.65030944
H    3.04437900  -0.72882968   0.53107977
H    1.64496934   0.29750988   0.81301969
H    5.10117817   1.86474931  -1.24928951
H    4.14412832   0.70046973  -2.16628909
H    5.06083822   0.17258993  -0.74208969
H    1.36705947   2.45846915  -0.60027981
H    2.74526906   3.02992892  -1.58030939
H    3.82549858   3.93223858   0.42865986
H    2.36876917   3.48407888   1.36970949

