%chk=mol_1737.chk
# wB97XD/Def2SVP opt pop=full gfinput

C 6 H 13 N 1

1 2
C    5.863688  -1.872227  -1.049837
N    5.036517  -0.032390   0.819064
C    6.327786   2.406169   0.581828
C    4.991145   4.313300   2.304805
C    9.144026   2.281466   1.155549
C    9.968229   1.399115   3.732436
C   10.869157   2.952773  -0.588196
H    4.714224  -3.583185  -0.875094
H    7.839245  -2.422629  -0.783084
H    5.612128  -1.157287  -2.975109
H    5.275265  -0.734612   2.592005
H    6.048333   3.093160  -1.357749
H    4.994357   3.714521   4.286825
H    3.015228   4.554845   1.731877
H    5.901010   6.170296   2.198772
H    9.289440  -0.517067   4.109436
H    9.249454   2.659790   5.205100
H   12.030526   1.361699   3.911280
H   10.314088   3.594183  -2.456965
H   12.882319   2.874425  -0.199820

