%chk=mol_1405.chk
# wB97XD/Def2SVP opt freq pop=full gfinput

C 5 H 14 N 2

1 2
C    2.09456921  -1.29059947   0.83632970
C    3.17986870  -0.45207983   0.17718993
C    3.00146866   1.03353965   0.49086982
N    4.05990839   1.80698931  -0.16001993
C    3.92191839   3.23916888   0.15103994
C    5.04003811   4.07265854  -0.50378978
N    5.18301773   3.79367876  -1.93855929
H    2.24615932  -2.35083914   0.61261976
H    1.10336959  -1.00424957   0.47125983
H    2.10958934  -1.16696954   1.92366934
H    3.15005875  -0.61736977  -0.90694964
H    4.16031837  -0.79526973   0.53061980
H    3.04381871   1.17989957   1.57660937
H    2.01750922   1.36777949   0.14120995
H    3.96751857   1.70852947  -1.17278957
H    3.96033835   3.39738870   1.23503947
H    2.95055890   3.60210872  -0.20904993
H    5.99477768   3.86052847  -0.00922000
H    4.82581806   5.13740778  -0.36348987
H    5.51615763   2.83314896  -2.03061938
H    5.93393803   4.37624836  -2.30983901

