%chk=mol_3727.chk
# wB97XD/Def2SVP opt pop=full gfinput

C 6 H 8 O 1

1 2
O    5.103772  -1.455921   2.083121
C    4.464100  -0.006104  -0.103651
C    5.531965   2.707637   0.000000
C    4.577767   4.120585   2.290764
C    3.209454   6.249570   2.215061
C    8.260730   2.707637   0.000000
C   10.509807   2.707637   0.000000
H    4.476516  -3.158980   1.801381
H    2.398913   0.044371  -0.241923
H    5.199336  -1.004049  -1.763058
H    4.879594   3.678295  -1.714416
H    5.048913   3.303695   4.123231
H    2.689666   7.142087   0.443368
H    2.590720   7.153521   3.950473
H   12.522969   2.705956   0.019710

