%chk=mol_6779.chk
# wB97XD/Def2SVP opt freq pop=full gfinput

C 6 H 9 N 1

1 2
C    1.05127954  -0.00063000   0.13796996
C    2.38810897  -0.01118000   0.05379998
C    3.26946878   1.19948959  -0.00891000
N    4.43019819   0.79864973  -0.82152969
C    4.59479856  -0.64208978  -0.54813975
C    3.24969888  -1.15871954  -0.12365995
C    2.94667888  -2.44721913   0.08148997
H    0.46572983  -0.91107970   0.11882996
H    0.50594980   0.93442965   0.21934992
H    3.60690856   1.47512949   0.99815965
H    2.77042890   2.06643915  -0.45446983
H    4.15838861   0.89180964  -1.79961932
H    4.96350813  -1.15268958  -1.44458938
H    5.32706833  -0.77489972   0.25681990
H    1.96457934  -2.76128912   0.41765985
H    3.68926859  -3.22371888  -0.06706997

