%chk=mol_1802.chk
# wB97XD/Def2SVP opt pop=full gfinput

C 5 H 8 N 2

1 2
C    1.854010  -0.134719   0.375016
N    4.595663   0.074644   0.269569
C    5.936953  -2.297057  -0.163953
C    5.723319   2.355657  -0.251428
N    4.773732   4.585477  -0.263919
C    8.369597   2.486710  -0.902684
C   10.569087   2.605781  -1.448040
H    1.058492   1.253361   1.687147
H    1.248070  -1.996836   1.045434
H    1.036590   0.172305  -1.500821
H    4.916444  -3.906480   0.644642
H    7.801111  -2.277366   0.734499
H    6.166743  -2.636451  -2.192290
H    2.915923   4.506279   0.224821
H   12.517697   2.747567  -1.931602

