%chk=mol_3678.chk
# wB97XD/Def2SVP opt pop=full gfinput

C 5 H 10 O 2

1 2
O    5.283863   7.575024  -1.892069
C    5.522214   5.381713  -3.433254
C    6.199776   3.098754  -1.807674
C    8.782294   3.342756  -0.656056
C   10.468005   1.056395  -0.428665
C   11.122417   3.120675  -2.262002
O   13.215422   4.695762  -1.562067
H    5.017299   8.995682  -3.029590
H    6.963490   5.735602  -4.873736
H    3.706131   5.063294  -4.371541
H    6.084294   1.388401  -2.968023
H    4.827456   2.904528  -0.271346
H    8.789570   4.699881   0.882011
H    9.833076  -0.728830  -1.210540
H   11.613633   0.856575   1.258104
H   10.898731   2.706919  -4.256741
H   13.054927   5.338060   0.149780

