%chk=mol_5782.chk
# wB97XD/Def2SVP opt pop=full gfinput

C 6 H 9 N 1

1 2
C    2.097067   0.297481   0.418933
C    4.548401  -0.151953  -0.022941
C    5.668952  -2.771151  -0.261103
C    7.976534  -2.407908  -1.989730
C    8.679493   0.329738  -1.743613
N    7.245267   2.236245  -3.117557
C    6.519121   1.728910  -0.520790
H    1.375513   2.216403   0.479405
H    0.761881  -1.232479   0.690922
H    4.352228  -4.163955  -1.039803
H    6.289576  -3.415434   1.608195
H    9.528170  -3.649836  -1.415084
H    7.495504  -2.858400  -3.954857
H   10.604671   0.726241  -1.203812
H    8.221783   3.895311  -3.231356
H    6.927793   3.128801   0.914061

