%chk=mol_4560.chk
# wB97XD/Def2SVP opt freq pop=full gfinput

C 5 H 7 N 1 O 1

1 2
C   -0.03210999  -0.16998994  -0.11270995
C    1.45574951  -0.36998987  -0.17978993
C    1.98426926  -1.56249940  -0.49978980
O    2.15637922   0.77712971   0.11623996
C    3.58553863   0.71928978   0.13031995
C    4.14053869   2.04189920   0.46179983
N    4.60648823   3.07461882   0.71943969
H   -0.33767989   0.62231982  -0.80358970
H   -0.32634988   0.12237995   0.90075964
H   -0.58645982  -1.07672954  -0.37574986
H    1.34075952  -2.41124892  -0.71717978
H    3.04818892  -1.75363934  -0.56290978
H    3.95445848   0.41518983  -0.85561967
H    3.91645861  -0.00658000   0.88273966

