%chk=mol_1366.chk
# wB97XD/Def2SVP opt pop=full gfinput

C 6 H 9 N 1

1 2
C    2.117929   0.470372   0.203278
C    4.917219  -0.097264  -0.155468
C    5.370602  -1.417673  -2.564831
N    5.708844  -2.474181  -4.458223
C    6.444835   2.301573  -0.347804
C    7.269493   3.658831   2.023368
C    9.197372   2.344508   0.405838
H    1.798906   1.498572   1.971211
H    1.009756  -1.277436   0.266735
H    1.369296   1.633989  -1.338644
H    5.582648  -1.268139   1.418372
H    5.880147   3.481329  -1.932169
H    6.832211   2.834211   3.847728
H    7.248574   5.708976   2.012407
H   10.473694   3.503703  -0.705435
H   10.057576   0.633304   1.133325

