%chk=mol_6970.chk
# wB97XD/Def2SVP opt pop=full gfinput

C 6 H 13 N 1

1 2
C    2.541323   0.339414   2.354391
C    3.809782   0.727223  -0.195813
C    6.136772   2.319374   0.042273
N    6.763576   4.165807  -1.911552
C    5.938446   5.122613   0.540953
C    7.824487   6.354658   2.261473
C    7.423638   9.194973   2.414390
H    0.910489  -0.918879   2.164266
H    1.876555   2.138055   3.128366
H    3.851470  -0.491556   3.720285
H    2.445438   1.577128  -1.505942
H    4.336241  -1.115430  -0.985983
H    7.717623   1.294066   0.847788
H    5.352233   4.326169  -3.218109
H    4.069280   5.951163   0.652900
H    9.761210   5.971743   1.631797
H    7.633303   5.544948   4.159911
H    7.552328  10.066722   0.544128
H    8.849380  10.059069   3.638913
H    5.557930   9.633597   3.192881

