%chk=mol_4340.chk
# wB97XD/Def2SVP opt freq pop=full gfinput

C 5 H 9 N 1 O 1

1 2
C    1.29648948  -0.00733000   1.43979943
C    1.65956938   0.40843984   0.02527999
C    2.59926915   1.60809946   0.03664999
C    2.02289915   2.99424887   0.02486999
C    0.72065973   3.29301882   0.11019996
N    3.87078857   1.33149946   0.06538998
O    4.67090797   2.47920918   0.08390997
H    0.63382977  -0.87809968   1.42235959
H    0.78660971   0.79971969   1.97532928
H    2.19174910  -0.27067992   2.01303935
H    0.76137972   0.62547976  -0.55977982
H    2.16363907  -0.42381984  -0.48086983
H    2.74342895   3.80178857  -0.05418998
H   -0.06011998   2.54863906   0.20436992
H    0.40321985   4.33191824   0.09599996
H    5.57045794   2.10285926   0.10960995

