%chk=mol_4031.chk
# wB97XD/Def2SVP opt pop=full gfinput

C 4 H 3 N 1 O 2

1 2
C    1.983683  -0.003987  -0.176368
C    4.496339   0.005046   0.032390
C    6.127324  -2.159617   0.298992
N    8.477613  -1.520889   0.456255
O    8.578601   1.205532   0.299994
C    6.182012   2.194822   0.040535
O    5.595101   4.410337  -0.142164
H    0.949134   1.760355  -0.369082
H    0.901248  -1.744349  -0.161383
H    5.377688  -4.093525   0.353322

