%chk=mol_0727.chk
# wB97XD/Def2SVP opt pop=full gfinput

C 4 H 8 O 2

1 2
C    1.846338  -0.046714  -0.177181
C    4.724958   0.007370  -0.090631
C    5.904203  -1.668571  -2.114830
C    5.719237   2.690157  -0.253639
O    5.166077   3.902492  -2.430320
O    6.927320   3.701085   1.435682
H    1.044244   1.222086   1.248032
H    1.141054  -1.956282   0.194207
H    1.119757   0.548871  -2.020911
H    5.316669  -0.722934   1.759146
H    5.297639  -1.122441  -4.016405
H    5.372321  -3.647341  -1.824852
H    7.969788  -1.544719  -2.060028
H    4.193604   2.906323  -3.635644

