%chk=mol_0597.chk
# wB97XD/Def2SVP opt pop=full gfinput

C 4 H 6 O 2

1 2
C    0.276127   1.864101  -0.295364
O   -1.323583  -0.242376   0.260820
C    1.333013  -0.766397   0.010261
C    2.584371  -1.709371   2.409136
C    2.324571  -4.389777   3.341376
O    4.542202  -3.555765   2.036463
H    0.179222   2.654536  -2.179554
H    0.594394   3.231715   1.191416
H    1.907868  -1.714775  -1.719556
H    2.933025  -0.289090   3.848843
H    1.042165  -5.639642   2.350366
H    2.476921  -4.733669   5.351232

