%chk=mol_5396.chk
# wB97XD/Def2SVP opt freq pop=full gfinput

C 4 H 9 N 1 O 2

1 2
C    3.45447874  -1.13951957   0.11396996
O    4.36804867  -0.06076998   0.26239988
C    3.75537848   1.19112957  -0.07079997
C    4.79385853   2.30498910   0.07219997
N    5.20975780   2.48614907   1.45142949
C    4.48026800   3.24413872   2.32768893
O    3.48824883   3.90008855   2.04494929
H    3.96426845  -2.06477928   0.39817986
H    3.13126874  -1.22569942  -0.92808962
H    2.58778906  -1.00335968   0.76859969
H    2.90018892   1.36762953   0.59229976
H    3.40411878   1.15377951  -1.10836959
H    4.38325834   3.24886870  -0.30151990
H    5.69692802   2.05944920  -0.49532980
H    5.88982821   1.83504927   1.82356930
H    4.88986778   3.19902873   3.35052872

