%chk=mol_6981.chk
# wB97XD/Def2SVP opt pop=full gfinput

C 5 H 8 N 2

1 2
C    5.921854  -2.204743  -0.839435
C    4.667567   0.116917   0.297197
C    6.461163   2.300874   0.448772
N    6.854245   3.935922  -1.731651
C    5.472420   4.984644   0.444199
C    6.656258   6.806680   2.080418
N    7.558319   8.268762   3.440719
H    4.590353  -3.785877  -0.900814
H    7.563534  -2.783850   0.279283
H    6.570767  -1.828896  -2.767920
H    4.005558  -0.334047   2.207181
H    2.992192   0.602218  -0.822050
H    8.128941   1.879314   1.566564
H    5.635938   3.514664  -3.167200
H    3.466362   5.273829   0.139348

