%chk=mol_6069.chk
# wB97XD/Def2SVP opt pop=full gfinput

C 4 H 6 N 2 O 1

1 2
O    2.859817   0.072622   2.314008
C    4.479577   0.019993   0.681190
N    5.552280  -2.137639  -0.399110
C    7.428759  -1.522647  -2.256598
C    9.806413  -0.114858  -1.631098
C    7.489438   1.373151  -2.290877
N    5.640832   2.107895  -0.449434
H    5.049235  -3.887753   0.162195
H    7.257663  -2.493116  -4.050118
H   10.447766  -0.106222   0.314998
H   11.331516  -0.162743  -2.998277
H    7.356080   2.308414  -4.104844
H    5.208709   3.890020   0.072792

