%chk=mol_1145.chk
# wB97XD/Def2SVP opt freq pop=full gfinput

C 5 H 6 S 1

1 2
C    0.92411965   0.01840999  -0.00866000
C    2.41460896   0.04879998  -0.00087000
C    3.18488884   1.19659948   0.00250000
S    4.86381817   0.87003970   0.01131999
C    4.58836842  -0.81593966   0.01058000
C    3.24496865  -1.11943960   0.00378000
H    0.50283980   1.02881956   0.00053000
H    0.55019981  -0.51349980   0.87203968
H    0.55941981  -0.49382982  -0.90473968
H    2.84267902   2.22260928   0.00024000
H    5.42346764  -1.50270951   0.01511999
H    2.87123871  -2.13645935   0.00222000

