%chk=mol_5096.chk
# wB97XD/Def2SVP opt pop=full gfinput

C 4 H 10 N 2 O 1

1 2
C    1.750567  -0.532336   0.536229
N    4.267493  -0.636894  -0.620133
C    4.402325  -2.787630  -2.357792
C    4.836792   1.719745  -1.999255
C    5.176130   3.869460  -0.152331
N    3.754319   5.861402  -0.255774
O    4.495847   7.537381   1.653170
H    1.640774   0.967483   1.958229
H    1.340439  -2.301403   1.532908
H    0.257589  -0.217867  -0.865154
H    4.042124  -4.561534  -1.350738
H    6.299874  -2.947954  -3.171924
H    3.038018  -2.628647  -3.908804
H    3.372159   2.184977  -3.387806
H    6.646961   1.535100  -2.991153
H    6.695715   3.669678   1.265191
H    3.316677   8.937497   1.430353

