%chk=mol_1652.chk
# wB97XD/Def2SVP opt pop=full gfinput

C 5 H 8 N 2

1 2
C    1.887118  -0.041158   0.187707
N    4.619794  -0.064780   0.576669
C    5.767652   2.324174  -0.272139
C    8.593870   2.254254  -0.032428
C    9.832131   0.059319   0.175102
C    8.235747  -2.230028  -0.003779
N    5.788666  -2.317220   0.107223
H    1.029542   1.674146   0.966859
H    1.008698  -1.647066   1.155397
H    1.416595  -0.166069  -1.824455
H    5.052598   3.876433   0.898659
H    5.282918   2.724002  -2.246582
H    9.611222   4.031901  -0.030122
H   11.857351  -0.125705   0.341247
H    9.279783  -4.007259  -0.305380

