%chk=mol_4886.chk
# wB97XD/Def2SVP opt pop=full gfinput

C 5 H 11 N 1 O 1

1 2
C    0.968220  -0.681549  -0.756457
C    3.747591  -0.552556  -1.472305
O    4.091730   1.502918  -3.192541
C    5.435306  -0.180696   0.872808
N    8.104790   0.008731   0.091652
C    9.865050  -0.708137   2.094308
C    9.373439  -2.432493  -0.119317
H    0.600574  -2.249814   0.537230
H   -0.198081  -0.930558  -2.446137
H    0.350015   1.080432   0.139707
H    4.273710  -2.293636  -2.464524
H    5.912216   1.810736  -3.206827
H    5.088560  -1.704250   2.237360
H    4.939574   1.606740   1.795126
H    9.121236  -1.234218   3.926964
H   11.636896   0.315017   2.137337
H   10.810651  -2.563111  -1.571156
H    8.285127  -4.138047   0.183795

