%chk=mol_4592.chk
# wB97XD/Def2SVP opt pop=full gfinput

C 4 H 8 N 2 O 1

1 2
C    3.521146  -0.167279  -0.137629
C    6.247472  -1.003199   0.185155
C    7.993183   1.202603   0.664144
O    7.350449   3.422351   0.783537
C   10.784554   0.570641   1.109968
N   11.888456  -1.552958   0.148986
N   12.152092   2.120953   2.424972
H    2.300080  -1.803498  -0.467858
H    3.326012   1.119965  -1.746353
H    2.839578   0.819612   1.548498
H    6.863976  -1.982077  -1.529110
H    6.383476  -2.302877   1.789590
H   11.362356  -2.052016  -1.623294
H   13.799310  -1.448910   0.328000
H   11.021752   3.631449   2.935236

