%chk=mol_4962.chk
# wB97XD/Def2SVP opt freq pop=full gfinput

C 4 H 8 N 2 O 1

1 2
C    1.09475958   0.17912993  -0.23936990
N    2.53210902   0.30314991  -0.01177000
C    3.32274866  -0.64948976  -0.78447974
C    3.25715876   0.80250967  -1.19716954
C    4.42178822   1.68852937  -0.93594962
N    4.43714857   2.29842925   0.28260991
O    5.29695797   1.84922934  -1.77401936
H    0.60670978   1.13526964  -0.02384999
H    0.67905974  -0.56740981   0.44527984
H    0.82124966  -0.11422996  -1.26033950
H    2.81079888  -1.38163948  -1.39685941
H    4.23122835  -1.00692964  -0.31351990
H    2.68685913   1.05071962  -2.08472919
H    3.76922846   1.99258924   0.98060960
H    5.25686836   2.81896901   0.55592978

