%chk=mol_4358.chk
# wB97XD/Def2SVP opt pop=full gfinput

C 5 H 11 N 1 O 1

1 2
C    5.851178  -2.706163   2.567306
C    5.692403   0.136741   2.751007
C    4.872338   1.207289   4.908885
C    6.436728   1.548744   0.360900
N    5.921022   4.287827   0.454536
C    9.259318   1.200713  -0.333801
O    9.880225   2.752159  -2.459176
H    7.814112  -3.315279   2.338574
H    4.753115  -3.384140   0.950079
H    5.106267  -3.641275   4.257383
H    4.346805   0.063438   6.532689
H    4.689412   3.232981   5.154096
H    5.296808   0.822636  -1.211749
H    6.905040   5.050803   1.924799
H    4.053387   4.534058   0.857614
H    9.680236  -0.758498  -0.842213
H   10.493442   1.752683   1.234275
H    8.760827   4.219456  -2.291728

