%chk=mol_1464.chk
# wB97XD/Def2SVP opt freq pop=full gfinput

C 6 H 13 N 1

1 2
C    2.24596930  -0.24991991  -1.53184950
C    2.39367914   0.15960994  -0.07148997
N    3.08122897   1.44243944   0.07778998
C    2.31679916   2.58327913  -0.42861986
C    3.02648902   3.77889848   0.19121993
C    3.70104861   3.23821878   1.44594944
C    3.34001875   1.76168931   1.48424947
H    1.81797934  -1.25599957  -1.59662950
H    3.21718884  -0.26581991  -2.03847933
H    1.58185935   0.42744985  -2.07797933
H    2.97991896  -0.61963981   0.43169984
H    1.40608943   0.17623994   0.40577987
H    1.27381957   2.55486917  -0.08895997
H    2.32776904   2.64408898  -1.52124941
H    3.78391838   4.17966843  -0.49351981
H    2.32393909   4.58634806   0.42312986
H    4.78587818   3.37202883   1.37118948
H    3.35936880   3.75825858   2.34616899
H    4.15432835   1.15953958   1.90080929
H    2.44505906   1.61461937   2.10377932

