%chk=mol_6754.chk
# wB97XD/Def2SVP opt freq pop=full gfinput

C 5 H 8 N 2

1 2
C    1.01707959  -0.06638997   0.00281000
C    2.50587916  -0.01853999  -0.04688998
C    3.24650884  -0.62531978  -1.21610951
N    3.14994884   0.82496971  -1.04910958
C    4.39176846   1.45677936  -0.57486981
C    5.25163794   1.90312934  -1.69030929
N    5.95695782   2.25191927  -2.54456902
H    0.63446975   0.75070971   0.62263978
H    0.68713975  -1.01147962   0.44556981
H    0.56415975   0.01933999  -0.99074960
H    2.94948912  -0.09448997   0.93917966
H    2.67406893  -1.03995967  -2.03807926
H    4.19594860  -1.11421955  -1.03263962
H    4.97776794   0.79986972   0.08259997
H    4.11960840   2.33226919   0.02738999

