%chk=mol_4681.chk
# wB97XD/Def2SVP opt freq pop=full gfinput

C 5 H 13 N 1 O 1

1 2
C    1.35564947  -0.46556982   0.35731986
C    2.82603908  -0.15220994   0.64677978
N    3.65574861  -1.19771957   0.02162999
C    3.26063871   1.25601947   0.15169995
C    2.39283919   2.36631918   0.75445974
C    4.73603821   1.55035949   0.48335981
O    5.61278772   0.68984973  -0.23514992
H    0.69091976   0.18695992   0.93050963
H    1.10936964  -1.49470949   0.64314973
H    1.12262964  -0.34567985  -0.70590979
H    2.98425889  -0.21044992   1.73088932
H    3.43059874  -1.24793959  -0.97584963
H    3.38405871  -2.10832930   0.39920986
H    3.14593863   1.28724957  -0.94019967
H    2.40192914   2.32644916   1.84921932
H    1.35491943   2.29151917   0.41591987
H    2.75551891   3.35425854   0.44946983
H    4.93432808   1.42788947   1.55441940
H    4.99937820   2.57746887   0.20932992
H    5.22995806  -0.21086992  -0.13517995

