%chk=mol_2546.chk
# wB97XD/Def2SVP opt pop=full gfinput

C 5 H 8 O 2

1 2
C    1.860662  -0.025058   0.236556
C    4.699484   0.149269  -0.143751
O    5.255234   0.396824  -2.814199
C    6.070103   2.098560   1.585027
C    7.826773   0.045694   2.683657
C    6.261872  -1.929259   1.254325
O    6.319320  -4.224388   1.152846
H    1.372130  -0.216090   2.239685
H    1.079638  -1.660975  -0.761163
H    0.918747   1.670707  -0.484242
H    6.528210  -0.884278  -3.180409
H    4.858259   2.999600   3.002737
H    7.070505   3.594316   0.561721
H    9.783944   0.142070   2.028564
H    7.772254  -0.154636   4.735899

