%chk=mol_6816.chk
# wB97XD/Def2SVP opt pop=full gfinput

C 5 H 8 N 2

1 2
C    1.748734   0.092181  -0.013001
C    4.551594   0.000208  -0.001058
C    6.196658   2.027997   0.009392
N    8.619136   1.108022   0.014362
C    8.565543  -1.474705   0.007899
N   10.708738  -2.822344   0.007086
C    6.077208  -2.218973  -0.001285
H    1.059286   2.042624   0.006161
H    0.988232  -0.873998   1.650506
H    1.004578  -0.835410  -1.705667
H    5.852331   4.042786   0.011414
H   10.204332   2.167403   0.017518
H   10.676669  -4.741965   0.056654
H   12.464237  -2.055644   0.083431
H    5.411609  -4.151502  -0.009600

