%chk=mol_6229.chk
# wB97XD/Def2SVP opt freq pop=full gfinput

C 4 H 8 N 2 O 1

1 2
O    4.22357845  -1.14108956  -0.59180981
C    3.16926885  -0.57719982   0.16931994
C    3.29947877   0.91215968   0.25581989
C    4.23816872   1.65646935  -0.34648988
N    4.37336874   3.01938891  -0.26830989
C    5.27980804   3.84422874  -0.87206966
N    6.21592760   3.56790876  -1.70759928
H    4.09664869  -2.10441923  -0.57786977
H    3.19675875  -1.00727963   1.17536962
H    2.21706915  -0.83864969  -0.30249989
H    2.54876900   1.40077949   0.87025970
H    4.98928785   1.17078960  -0.96522963
H    3.69666862   3.47319865   0.33640987
H    5.14347792   4.89586830  -0.56575978
H    6.21447802   2.56400919  -1.90082932

