%chk=mol_0370.chk
# wB97XD/Def2SVP opt pop=full gfinput

C 5 H 13 N 1

1 2
C    1.874570  -0.176935   0.009316
C    4.746747  -0.091897   0.018406
C    5.726040   2.626417   0.016460
C    8.616566   2.695600   0.011981
N    9.485783   5.321847   0.023792
C   12.236147   5.453220   0.031010
H    1.215774  -2.137772   0.022318
H    1.111423   0.745421  -1.677585
H    1.099216   0.771764   1.675923
H    5.461365  -1.100709  -1.644156
H    5.449970  -1.091430   1.691456
H    4.999270   3.619959   1.684993
H    4.998874   3.622265  -1.651375
H    9.323757   1.725622  -1.676584
H    9.337024   1.695670   1.678039
H    8.801135   6.218011   1.587219
H   13.029208   4.575500  -1.664924
H   13.035180   4.539084   1.705421
H   12.829275   7.433465   0.042765

