%chk=mol_2276.chk
# wB97XD/Def2SVP opt pop=full gfinput

C 7 H 12

1 2
C    1.939520   0.094845   0.722178
C    4.760541   0.013341   0.092105
C    5.471929  -2.474955  -1.244800
C    5.049084  -1.939653  -4.002705
C    7.048055  -0.719286  -5.610351
C    5.050179   0.869180  -4.362924
C    5.473932   2.082214  -1.828612
H    1.445924   1.895546   1.616226
H    1.443600  -1.423228   2.039279
H    0.761182  -0.119544  -0.966822
H    5.823078   0.237973   1.854388
H    4.334314  -4.074382  -0.587119
H    7.466195  -2.926354  -0.908524
H    3.562890  -3.040437  -4.867178
H    8.967676  -0.629090  -4.899190
H    6.931005  -0.979332  -7.640125
H    3.565554   1.717874  -5.477031
H    7.468670   2.601756  -1.617152
H    4.338452   3.796460  -1.596006

