%chk=mol_6437.chk
# wB97XD/Def2SVP opt freq pop=full gfinput

C 5 H 6 O 1 S 1

1 2
C    0.91608965  -0.02318999  -0.00618000
C    2.40587926   0.05050998  -0.00280000
C    3.14509869   1.21679950  -0.00396000
O    2.69185901   2.46555901  -0.00771000
S    4.82548809   0.92524964   0.00031000
C    4.59691858  -0.76595968   0.00335000
C    3.26236868  -1.10151958   0.00124000
H    0.45790982   0.97035962   0.00512000
H    0.56202978  -0.56822979   0.87523967
H    0.56520981  -0.54736978  -0.90080965
H    3.49333858   3.01679897  -0.00716000
H    5.44786787  -1.43368948   0.00649000
H    2.90944886  -2.12530923   0.00260000

