%chk=mol_6633.chk
# wB97XD/Def2SVP opt freq pop=full gfinput

C 3 H 7 N 1 O 2 S 1

1 2
C    1.14962959  -0.04396999  -0.63352972
S    2.52496910   0.31162989   0.43282983
O    2.04538918   0.33679989   1.79939938
O    3.63245869  -0.53744984   0.04590998
N    2.88078880   1.91104925  -0.08371997
C    2.74664903   2.98799872   0.90582967
C    4.10115862   2.47837901   0.51611984
H    1.47536945   0.03234999  -1.67251933
H    0.34478989   0.66196972  -0.42065984
H    0.81500971  -1.06230962  -0.42344984
H    2.33822918   2.71482897   1.86778927
H    2.39407921   3.91022849   0.46654981
H    4.68728828   3.03433895  -0.20045991
H    4.63256836   1.82524931   1.19457960

