%chk=mol_4425.chk
# wB97XD/Def2SVP opt freq pop=full gfinput

C 5 H 9 N 1 O 1

1 2
C    0.87487966  -0.15654995   1.15847957
C    1.63612938  -0.06604998   0.06075998
C    2.69915891   0.97920960  -0.15422994
C    4.08639860   0.36787987  -0.34624988
O    4.13130856  -0.32717988  -1.59544945
N    5.41194773  -0.87855965  -1.75259936
C    5.42817783  -1.57283938  -2.83892870
H    0.12341995  -0.93498963   1.24799955
H    0.98069966   0.53553981   1.98793924
H    1.48864949  -0.78350967  -0.74541974
H    2.72855878   1.66946948   0.69685972
H    2.42529917   1.56070936  -1.04243958
H    4.32649851  -0.32389989   0.46995983
H    4.83539820   1.16815948  -0.36360985
H    6.34872770  -2.09224916  -3.14526892
H    4.54847860  -1.68132937  -3.49575877

