%chk=mol_4038.chk
# wB97XD/Def2SVP opt pop=full gfinput

C 5 H 11 N 1 O 1

1 2
C    1.634556  -0.070619  -0.441535
C    4.368575   0.347766   0.159871
C    5.111350   0.083790   2.875899
O    6.066871  -0.866817  -1.574747
C    5.966697   1.844184  -1.698977
C    8.366309   3.153159  -1.002481
N    9.895853   3.456234  -3.276445
H    1.258954   0.068748  -2.471932
H    0.468047   1.341176   0.519788
H    1.031696  -1.948156   0.184135
H    7.147228  -0.177748   3.122867
H    4.180622  -1.556246   3.728637
H    4.542278   1.767442   3.934070
H    5.024253   2.715253  -3.295682
H    9.455112   2.096406   0.401907
H    7.936037   5.014577  -0.210761
H   10.258662   1.702322  -3.994881
H   11.607038   4.189882  -2.788763

