%chk=mol_1367.chk
# wB97XD/Def2SVP opt freq pop=full gfinput

C 6 H 13 N 1

1 2
C    2.04246926  -0.01289999   0.67159981
C    2.81148911  -0.17517994  -0.64387971
C    2.00335908  -0.97844958  -1.68429935
N    1.71370935  -2.34044909  -1.24193954
C    3.16216874   1.18815958  -1.19882965
C    4.46506834   1.84520936  -0.81759971
C    4.26227808   1.34150946  -2.21889925
H    2.61472893   0.59197980   1.38336945
H    1.84411919  -0.98105967   1.14213955
H    1.08258951   0.49050984   0.50915980
H    3.73854852  -0.72291970  -0.42658985
H    2.56300902  -1.02985966  -2.62576890
H    1.05947959  -0.46633983  -1.90482926
H    2.58783913  -2.83193898  -1.06011963
H    1.25249958  -2.84721899  -1.99617922
H    2.29134893   1.82611930  -1.31114960
H    5.15794802   1.30534947  -0.18253994
H    4.46520805   2.91788888  -0.65738976
H    4.12228823   2.07448912  -3.00594878
H    4.81633806   0.46233982  -2.52700901

