%chk=mol_0893.chk
# wB97XD/Def2SVP opt freq pop=full gfinput

C 6 H 8

1 2
C    1.01033962  -0.03407999   0.24273992
C    2.51999903   0.00000000   0.00000000
C    2.85347891  -0.76386970  -1.26428950
C    3.35607862  -0.29348990  -2.41517901
C    3.00201893   1.36116946   0.00000000
C    3.39929867   2.48306894   0.00000000
H    0.75411975   0.45783985   1.18843961
H    0.64080977  -1.06464958   0.29398990
H    0.46116981   0.48054981  -0.55520976
H    3.00377893  -0.53402978   0.82842970
H    2.65960908  -1.83489931  -1.20803952
H    3.58174872   0.75785971  -2.56538916
H    3.55264878  -0.96301961  -3.24734855
H    3.75611854   3.48706865  -0.00153000

