%chk=mol_3816.chk
# wB97XD/Def2SVP opt pop=full gfinput

C 5 H 9 N 1 O 1

1 2
C    3.552213   0.317455  -1.487933
O    3.189064  -0.122265   1.157665
C    0.944202   0.114499  -0.348636
C   -0.656737   2.350989   0.251863
C   -3.302032   1.338077  -0.265242
N   -3.120732  -1.349472   0.387129
C   -0.647137  -2.215402  -0.541520
H    4.243078   2.159220  -2.049597
H    4.260633  -1.238016  -2.612036
H   -0.453213   2.890771   2.240667
H   -0.229715   3.984110  -0.941688
H   -4.739754   2.308565   0.858408
H   -3.782608   1.543944  -2.270865
H   -4.540917  -2.359947  -0.424244
H   -0.794044  -2.822533  -2.514715
H    0.055879  -3.781380   0.609002

