%chk=mol_1610.chk
# wB97XD/Def2SVP opt pop=full gfinput

C 7 H 12

1 2
C    1.965731  -0.142296  -0.102348
C    4.784295   0.152010  -0.017291
C    6.503379  -1.125143  -2.059178
C    8.537877  -0.600838   0.012529
C    6.413352  -1.421546   1.887288
C    8.645157   2.272793   0.232984
C    5.807015   2.852787   0.208720
H    1.084608   0.625235   1.605833
H    1.423720  -2.134540  -0.247365
H    1.162465   0.847410  -1.732765
H    6.725894  -0.118750  -3.851961
H    6.115891  -3.120713  -2.462710
H   10.291260  -1.675960  -0.028289
H    6.014696  -3.453928   1.969964
H    6.550112  -0.695419   3.818815
H    9.543778   2.889108   1.991110
H    9.625113   3.144769  -1.366196
H    5.280462   4.033602  -1.406618
H    5.200508   3.783364   1.954393

