%chk=mol_4689.chk
# wB97XD/Def2SVP opt freq pop=full gfinput

C 5 H 11 N 1 O 1

1 2
C    1.01576960  -0.27495989   0.77826971
C    2.47800899  -0.12342995   1.18475962
N    3.04398894   1.20379949   0.87419969
C    2.38403916   2.26046920   1.65390944
C    4.49682808   1.18602955   1.16013956
C    5.16134834   2.42527914   0.59879977
O    5.93416786   3.13081884   1.24263954
H    0.70649970  -1.31987953   0.88741964
H    0.86283970   0.01219000  -0.26708990
H    0.35329989   0.32745987   1.40699947
H    3.04025888  -0.88538963   0.62974977
H    2.58774900  -0.35856986   2.25107932
H    1.32663953   2.34511900   1.38446951
H    2.81856894   3.24246883   1.43785954
H    2.45663905   2.08300924   2.73274899
H    4.97432852   0.33887988   0.65343976
H    4.70275831   1.10945952   2.23411894
H    4.96122837   2.63347888  -0.46604982

