%chk=mol_2539.chk
# wB97XD/Def2SVP opt pop=full gfinput

C 6 H 10 O 1

1 2
C    1.929486   0.152047   0.156488
C    4.789492  -0.067350   0.033410
O    5.889861   1.976559   1.457395
C    8.377590   1.147612   2.136052
C    8.112122  -1.632723   2.783774
C    5.908985  -2.406377   1.190981
C    5.079187  -4.786865   0.965253
H    1.003785  -1.296466  -0.992692
H    1.323073   2.010593  -0.525060
H    1.249619  -0.014400   2.105287
H    5.435079   0.125686  -1.926859
H    9.639002   1.443562   0.519467
H    9.072972   2.265423   3.729715
H    9.846134  -2.678611   2.368280
H    7.637385  -1.854407   4.786941
H    3.442042  -5.253023  -0.178598
H    6.015490  -6.333909   1.935420

