%chk=mol_5512.chk
# wB97XD/Def2SVP opt freq pop=full gfinput

C 5 H 11 N 1 O 1

1 2
N    1.01877964   0.01439999  -0.04848998
C    2.46795893  -0.00022000   0.04333998
C    3.01240873   1.12161958   0.92054969
C    4.43674803   0.66018975   1.18301952
C    4.30015802  -0.84601969   1.40595949
O    5.43224812  -1.53878951   0.90849966
C    3.01132894  -1.27643955   0.69339973
H    0.69861972  -0.74745971  -0.64490974
H    0.70519978   0.87912971  -0.48717982
H    2.88996887   0.09403997  -0.96543968
H    2.45941901   1.19586957   1.86550927
H    2.97812891   2.09693933   0.42517984
H    5.07919836   0.87462968   0.32023987
H    4.87781811   1.16143954   2.04960918
H    4.22048855  -1.06629956   2.47697902
H    5.49468803  -1.37737942  -0.04791998
H    3.17120862  -2.06699920  -0.04696998
H    2.30528903  -1.66079926   1.43922949

