%chk=mol_5389.chk
# wB97XD/Def2SVP opt freq pop=full gfinput

C 4 H 10 N 2 O 1

1 2
C    1.62629938   1.61223948   2.64520907
O    2.58803916   2.35000920   1.90114927
C    3.25734878   1.51998937   0.94151968
C    4.29481840   2.36626911   0.19762993
N    5.29698801   2.87544894   1.12899959
C    6.33815765   2.13104939   1.59352946
N    6.96153736   1.18070960   0.99993962
H    1.14677966   2.29186916   3.35524869
H    2.11077929   0.80668968   3.20478868
H    0.85973966   1.20331955   1.98019922
H    2.52282906   1.12975955   0.22823992
H    3.73993874   0.68085974   1.45606947
H    3.79888844   3.22989869  -0.25783992
H    4.75621796   1.78934932  -0.60991979
H    4.84873819   3.44603848   1.84664929
H    6.65295744   2.43188906   2.60807896
H    6.59364748   1.06371963   0.05521998

