%chk=mol_6845.chk
# wB97XD/Def2SVP opt freq pop=full gfinput

C 5 H 12 N 2

1 2
C    0.98963964   0.14493994  -0.18967994
C    2.48335910   0.06886998   0.00971000
N    2.91565895  -0.05763998   1.43059945
C    3.31662869  -0.64138973  -1.02963960
C    3.41480875   0.85944968  -0.93129969
C    2.86170912   1.66572940  -2.08103919
N    4.64008808   1.43106949  -0.31360987
H    0.69798970   0.04917998  -1.23997951
H    0.60575980   1.09885967   0.18687992
H    0.49033982  -0.66375977   0.35498986
H    3.75106835  -0.64112979   1.48649943
H    2.21095896  -0.56424981   1.96723926
H    2.81497908  -1.07163966  -1.88979924
H    4.17730856  -1.22482955  -0.72030973
H    2.08070922   1.13457966  -2.63344884
H    3.65732861   1.90105927  -2.79554892
H    2.44074917   2.60692906  -1.71491933
H    4.67159843   1.09715950   0.65371978
H    4.51882839   2.43869925  -0.20427993

