%chk=mol_0455.chk
# wB97XD/Def2SVP opt pop=full gfinput

C 5 H 9 N 1

1 2
C    1.953712   0.159984  -0.455159
N    4.636840  -0.062701   0.142051
C    6.012938  -1.695103  -1.594834
C    6.274250   1.150031  -1.719481
C    8.588389   2.319185  -0.760086
C   10.805776   2.439542  -1.977674
H    1.221311   1.942147   0.299333
H    0.912228  -1.379689   0.453874
H    1.520493   0.105144  -2.481740
H    4.981904  -2.644256  -3.086112
H    7.531598  -2.791126  -0.767002
H    5.386041   2.134446  -3.284155
H    8.466540   3.170223   1.109742
H   11.044599   1.627413  -3.843835
H   12.426404   3.350428  -1.112463

