%chk=mol_1884.chk
# wB97XD/Def2SVP opt pop=full gfinput

C 5 H 10 N 2

1 2
N    2.027147  -0.009052   0.029253
C    4.805479  -0.006671   0.100685
C    5.998785  -1.842672  -1.887251
C    8.847528  -1.417106  -1.620289
C    8.839685   1.477312  -1.580378
C    5.987200   1.893335  -1.832694
N    5.153434   0.048774  -3.880704
H    1.203245   1.380728   1.063179
H    1.222048  -1.674354   0.538175
H    5.591303  -0.048490   2.012237
H    5.277136  -3.765374  -2.055021
H    9.601907  -2.219899   0.130032
H    9.910045  -2.170180  -3.227312
H    9.894209   2.280143  -3.167540
H    9.590417   2.236491   0.189899
H    5.252853   3.814185  -1.948742
H    6.216122   0.077535  -5.481831

