%chk=mol_1125.chk
# wB97XD/Def2SVP opt freq pop=full gfinput

C 4 H 5 N 1 O 1

1 2
O    2.04508924  -0.96982968  -0.79888976
C    1.86621928   0.10606996  -0.23847991
C    2.97790885   1.01292956   0.21547993
C    4.34490824   0.42594984  -0.10790996
C    5.41044807   1.32601941   0.34314987
N    6.24051762   2.05222917   0.70750976
H    0.84536964   0.47239983  -0.03376998
H    2.86397910   1.16653955   1.29461944
H    2.84166884   1.98153925  -0.27882990
H    4.43815804   0.25751990  -1.18741953
H    4.46030855  -0.55171978   0.37506986

