%chk=mol_6591.chk
# wB97XD/Def2SVP opt freq pop=full gfinput

C 6 H 11 N 1

1 2
C    1.01249957   0.03412999   0.01760999
C    2.49749923  -0.00101000  -0.01940999
C    3.28224874  -1.08605957  -0.07604997
C    4.73320818  -0.73765969  -0.05834998
N    5.30345821  -1.08710957   1.23385954
C    4.70960808   0.77422971  -0.32098988
C    3.30738878   1.25545955   0.05613998
H    0.58491975  -0.97249961  -0.02968999
H    0.62386972   0.60526979  -0.83124971
H    0.66503972   0.50573981   0.94203967
H    2.92726898  -2.10741925  -0.10201997
H    5.27445793  -1.25736964  -0.85538965
H    4.78535843  -0.60256976   1.96591926
H    6.25576782  -0.73116970   1.28590953
H    4.88114834   0.95754963  -1.39062953
H    5.48983812   1.32358944   0.21750993
H    2.95635891   2.01898932  -0.64480978
H    3.28470874   1.66432941   1.07195961

