%chk=mol_6828.chk
# wB97XD/Def2SVP opt freq pop=full gfinput

C 6 H 11 N 1

1 2
C    0.99172962   0.08481997  -0.12206995
C    2.46902919   0.09219997   0.06142998
N    3.31638885  -0.72426969  -0.79444969
C    3.37197876   0.73026967  -0.97038966
C    4.57906866   1.44355953  -0.51973981
C    4.33677864   2.75286889   0.18506993
C    5.83490753   1.01430964  -0.73723972
H    0.55729979   0.99227965   0.30890989
H    0.55147982  -0.77765971   0.38823983
H    0.70317972   0.04023998  -1.17764950
H    2.75522900   0.12757996   1.10628963
H    2.78752899  -1.14951956  -1.55585945
H    2.93103886   1.11204958  -1.88586938
H    3.74769855   3.42206860  -0.45104983
H    5.27029800   3.26853871   0.43464983
H    3.78735852   2.58931899   1.11791956
H    6.01753807   0.07465997  -1.25056946
H    6.70153713   1.57219934  -0.40000984

