%chk=mol_5784.chk
# wB97XD/Def2SVP opt freq pop=full gfinput

C 4 H 9 N 1 O 2

1 2
N    1.59850943   0.13094994  -1.36640954
C    2.98586893   0.10367996  -0.86398971
C    3.22110868   1.26971960   0.11491996
O    2.24741912   1.17390954   1.16257954
C    4.58050823   1.32644951   0.73961973
C    5.60224819   0.21643992   0.71192974
O    5.66595745   1.32098949  -0.20179993
H    1.46168935  -0.67237973  -1.98241925
H    1.48054934   0.95163965  -1.96304929
H    3.68687868   0.13968994  -1.70279932
H    3.11704874  -0.85145968  -0.34488988
H    3.03928900   2.22105908  -0.39989984
H    1.43748939   0.86206967   0.70727974
H    4.62727833   2.04970908   1.54489946
H    5.34697819  -0.75391972   0.30967987
H    6.33932781   0.18427993   1.50613940

