%chk=mol_5715.chk
# wB97XD/Def2SVP opt pop=full gfinput

C 6 H 9 N 1

1 2
C    1.807126  -0.010942   0.093712
C    4.668361   0.024831   0.015137
C    6.002488   1.984212   1.732388
C    8.032225  -0.043369   2.327292
C    6.047955  -2.053187   1.547289
C   10.287839   0.052780   0.774391
N   12.093548   0.129465  -0.468898
H    1.072098  -1.638733  -0.949965
H    1.035041   1.701150  -0.773389
H    1.096362  -0.121358   2.033723
H    5.344051   0.123059  -1.946947
H    4.905087   2.547578   3.398767
H    6.653102   3.698647   0.776375
H    8.509607  -0.130051   4.342383
H    6.735816  -3.658113   0.439248
H    4.965425  -2.790993   3.154274

