%chk=mol_3429.chk
# wB97XD/Def2SVP opt pop=full gfinput

C 5 H 10 O 2

1 2
C    6.166800  -0.722310   0.787317
O    4.776359   1.578734   0.824280
C    6.037713   3.829795   0.410430
C    4.238599   6.026733   0.526478
C    8.541260   4.033828  -0.028592
C   10.046672   6.373744  -0.505615
O   11.926081   6.556461   1.400949
H    4.842575  -2.267992   1.145930
H    7.593713  -0.747595   2.284074
H    7.024925  -1.038216  -1.067582
H    3.278977   6.050336   2.360136
H    2.801217   5.833112  -0.949398
H    5.136597   7.865720   0.282212
H    9.707995   2.344886  -0.086890
H    8.950461   8.118754  -0.502951
H   10.999302   6.229973  -2.335116
H   11.043087   6.561961   3.013319

