%chk=mol_1149.chk
# wB97XD/Def2SVP opt pop=full gfinput

C 4 H 5 N 1 S 1

1 2
C    1.791252   0.017612  -0.014249
C    4.599499   0.084112  -0.002362
C    6.086940   2.232749   0.003572
S    9.204648   1.374360   0.016478
N    8.684067  -1.715456   0.014438
C    6.200494  -2.096802   0.004327
H    0.991218   1.925102   0.005121
H    1.087216  -0.989857   1.649523
H    1.101181  -0.950551  -1.707008
H    5.523027   4.195513   0.000888
H    5.565565  -4.044108   0.001474

