%chk=mol_4096.chk
# wB97XD/Def2SVP opt freq pop=full gfinput

C 5 H 11 N 1 O 1

1 2
C    0.98153967   0.14735994  -0.18286994
C    2.47260928   0.03319999   0.00816000
N    2.91436887  -0.07292997   1.42441940
C    3.27425885  -0.70705974  -1.03924966
C    3.41593885   0.78447974  -0.93376964
C    2.93463874   1.67026937  -2.03485918
O    4.62449837   1.25584948  -0.30602989
H    0.68573976   0.09953996  -1.23560953
H    0.61596978   1.09266961   0.23210990
H    0.46953982  -0.67347980   0.33190989
H    3.79801846  -0.58339977   1.47342944
H    2.25510931  -0.64441979   1.95442927
H    2.75423884  -1.11210954  -1.90028930
H    4.12080860  -1.31167948  -0.73560971
H    2.09691930   1.23854959  -2.58981895
H    3.74262857   1.85077929  -2.75124907
H    2.61704922   2.63643909  -1.63081932
H    4.43743849   1.40119958   0.64176977

