%chk=mol_4700.chk
# wB97XD/Def2SVP opt freq pop=full gfinput

C 4 H 10 N 2 O 1

1 2
C    0.98647958  -0.13057995  -0.15847994
C    2.49315906   0.03082999  -0.00364000
N    3.22395873  -0.77142972  -0.99480963
C    2.89845872   1.50565934  -0.10955996
C    2.78034878   2.20868897  -1.44547951
N    3.31044888   2.10244918   0.97363967
O    3.63806868   3.44181871   0.72977972
H    0.45504984   0.48523983   0.57574981
H    0.68629974  -1.17322958  -0.00457000
H    0.64020979   0.17624994  -1.15170956
H    2.78339911  -0.32329988   0.99299967
H    2.84429884  -0.61192971  -1.92678928
H    3.06497884  -1.75992930  -0.80024970
H    2.30299926   1.57148945  -2.19268918
H    3.77898860   2.47828913  -1.80076933
H    2.17560911   3.11319876  -1.33552945
H    3.97078848   3.73543859   1.59859943

