%chk=mol_1119.chk
# wB97XD/Def2SVP opt freq pop=full gfinput

C 4 H 7 N 1 O 1

1 2
O    0.97811961  -0.05212998   0.59466976
C    2.04445934   0.03953999  -0.01402999
C    3.03757882   1.21336961   0.02763999
C    2.48562884   2.64279914  -0.12743995
N    3.48345876   3.09640884   0.87204963
C    3.51849890   1.71270943   1.40333939
H    2.35354924  -0.79001969  -0.67211980
H    3.88100839   1.02694964  -0.65455979
H    1.44856942   2.78102899   0.20075992
H    2.60040879   3.08909893  -1.11965954
H    4.36663818   3.39671874   0.45799983
H    4.51019812   1.36829948   1.71079934
H    2.81802893   1.54647934   2.23031926

