%chk=mol_5576.chk
# wB97XD/Def2SVP opt freq pop=full gfinput

C 4 H 9 N 1 O 2

1 2
N    1.03067958   0.01807999   0.23380990
C    2.47985911   0.02748999  -0.01022000
C    3.15222883   1.04010963   0.95886964
O    2.34726906   1.49248946   2.07108927
C    4.18867874  -0.06380998   1.27916944
C    3.15136886  -1.11118948   0.81244969
O    3.64902878  -2.23595905   0.05983998
H    0.58093983  -0.83298969  -0.11214996
H    0.54269981   0.78658974  -0.23030992
H    2.78260899   0.09907996  -1.05831957
H    3.59057879   1.90656936   0.45269981
H    1.50921941   0.99970967   1.94634926
H    5.09286785  -0.01323000   0.66319972
H    4.48265839  -0.14029995   2.32971907
H    2.54441905  -1.47628939   1.65321946
H    4.25597858  -1.86475933  -0.60207981

