%chk=mol_1440.chk
# wB97XD/Def2SVP opt pop=full gfinput

C 5 H 8 N 2

1 2
C    2.446156   0.559075   0.202050
C    5.247146   0.026192  -0.288939
C    5.508249  -1.468846  -2.648036
N    5.711999  -2.696034  -4.455880
N    6.594917   2.467831  -0.468236
C    7.528726   3.424505   1.947968
C    9.305786   2.288099   0.036528
H    2.178968   1.593946   1.975368
H    1.375267  -1.208839   0.342229
H    1.599634   1.674354  -1.326040
H    5.959856  -1.131870   1.280762
H    7.128803   2.375405   3.659417
H    7.524795   5.461819   2.158918
H   10.495067   3.556427  -1.046379
H   10.128573   0.454800   0.429402

