%chk=mol_3947.chk
# wB97XD/Def2SVP opt pop=full gfinput

C 5 H 11 N 1 O 1

1 2
C    1.922664  -0.037284   0.018652
C    4.793177  -0.001531   0.096244
C    5.848249   2.179270   1.651148
C    8.492864   1.270406   2.289517
O   10.186984   1.888857   0.279661
C    8.199578  -1.597178   2.545820
N    5.786247  -2.269013   1.341649
H    1.235427  -1.633687  -1.104904
H    1.197236   1.702511  -0.834106
H    1.110403  -0.199668   1.915729
H    5.530699   0.096848  -1.840007
H    4.751093   2.442849   3.389734
H    5.845131   3.947279   0.578842
H    9.216516   2.145368   4.016688
H    9.719863   0.879535  -1.183384
H    9.772397  -2.621031   1.672918
H    8.084154  -2.133558   4.539481
H    6.011786  -3.707794   0.082978

