%chk=mol_6476.chk
# wB97XD/Def2SVP opt freq pop=full gfinput

C 5 H 7 N 1 S 1

1 2
C    0.83602965  -0.05156998  -0.00639000
C    2.32285905  -0.01716999  -0.00310000
C    3.19100881   1.06359959  -0.00674000
C    2.82370901   2.50403905  -0.01509999
N    4.53693819   0.73019975  -0.00243000
C    4.67085791  -0.57642978   0.00423000
S    3.21921873  -1.48260939   0.00564000
H    0.41377982   0.95774966   0.00150000
H    0.45867983  -0.57673979   0.87699968
H    0.46305981  -0.56150979  -0.90048963
H    3.71658874   3.13710880  -0.00759000
H    2.22499919   2.75190902   0.86703968
H    2.24383903   2.74589896  -0.91136968
H    5.63999796  -1.05743968   0.00851000

