%chk=mol_3573.chk
# wB97XD/Def2SVP opt pop=full gfinput

C 6 H 10 O 1

1 2
O    2.250588  -0.028062   1.514540
C    4.656758   0.055482   0.294911
C    4.747332   2.292219  -1.527919
C    7.261424   2.400973  -2.944534
C    8.114673  -0.133623  -3.886827
C    7.123720  -2.318184  -3.073791
C    5.101542  -2.458855  -1.088066
H    1.978222   1.606796   2.307299
H    6.097731   0.295402   1.769823
H    4.434224   4.064272  -0.504406
H    3.180012   2.143516  -2.876428
H    8.735977   3.168504  -1.705535
H    7.076363   3.702805  -4.544961
H    9.599828  -0.159568  -5.307485
H    7.786975  -4.095490  -3.861448
H    3.343058  -3.112020  -1.968565
H    5.606364  -3.905025   0.308895

