%chk=mol_4640.chk
# wB97XD/Def2SVP opt freq pop=full gfinput

C 4 H 9 N 1 O 2

1 2
C   -0.52066982  -1.68924940   1.29561949
C    0.51067978  -1.16494954   0.30202988
C    1.65894938  -2.15538907   0.14986995
O   -0.08491997  -1.00668967  -0.99452960
N   -0.82782966   0.19734992  -1.01955962
C   -2.15266919   0.02958999  -1.30971944
O   -2.88266897   0.93060970  -1.69850934
H   -1.31459951  -0.95244962   1.45641947
H   -0.06273998  -1.91038930   2.26452923
H   -1.00435960  -2.59611893   0.91660964
H    0.91850966  -0.20578992   0.64601976
H    1.30063951  -3.11556888  -0.23803991
H    2.16518927  -2.32898903   1.10434961
H    2.39335895  -1.77987933  -0.57096982
H   -0.38048986   0.99947965  -1.45016944
H   -2.51282907  -0.99693960  -1.12808955

