%chk=mol_3208.chk
# wB97XD/Def2SVP opt freq pop=full gfinput

C 6 H 12 O 1

1 2
C    4.21339846   0.07634997   0.51831979
C    5.48666763   0.78948969   0.10223996
O    5.26097822   2.19402909   0.20822993
C    6.27236795   3.04989886  -0.16871995
C    7.49172735   2.68599892  -0.60203975
C    5.89487743   4.50582838  -0.03152999
C    4.75712824   4.89550829  -0.96541965
H    4.33675814  -1.00872958   0.45921984
H    3.37836862   0.37250987  -0.12577996
H    3.93656850   0.34615988   1.54293942
H    5.72672749   0.52014977  -0.93261963
H    6.30465746   0.48905981   0.76664966
H    7.80173683   1.65379941  -0.70339978
H    8.23141670   3.43373871  -0.87161970
H    6.75608730   5.15334845  -0.23796991
H    5.59981823   4.70209837   1.00607967
H    5.01491833   4.69596815  -2.00980926
H    4.53814840   5.96383762  -0.86721963
H    3.84047842   4.34371805  -0.72780973

