%chk=mol_3432.chk
# wB97XD/Def2SVP opt pop=full gfinput

C 7 H 10

1 2
C    5.049802  -1.177205   2.773003
C    4.767250  -0.053876   0.140029
C    5.696958   2.639929   0.000000
C    4.086779   4.590939  -0.194207
C    8.309428   3.124133   0.000000
C   10.520843   3.533996   0.000000
C   13.203914   4.031277   0.000000
H    4.323391  -3.113891   2.802426
H    3.993369  -0.077630   4.171211
H    7.033504  -1.236410   3.361861
H    2.770206  -0.162403  -0.416930
H    5.806202  -1.218250  -1.227358
H    2.056513   4.305760  -0.226162
H    4.755893   6.527606  -0.321253
H   13.584485   6.063772  -0.024132
H   14.115630   3.197927  -1.658556
H   14.107882   3.239047   1.682782

