%chk=mol_2880.chk
# wB97XD/Def2SVP opt freq pop=full gfinput

C 6 H 12 O 1

1 2
C    0.64433974   0.47346982  -0.99802965
C    1.87345934  -0.25895992  -0.48008981
C    3.02920890   0.71108973  -0.22100993
C    4.26298809   0.01382999   0.30754989
C    4.73287821   0.27346990   1.53833938
O    4.82757807  -0.85033971  -0.60625982
C    6.02070761  -1.53061950  -0.23371990
H   -0.16431993  -0.23602991  -1.19947946
H    0.86785966   1.00655961  -1.92778921
H    0.28286991   1.20051956  -0.26370990
H    2.17080903  -1.01635957  -1.21521950
H    1.61287940  -0.79027969   0.44313985
H    2.69685888   1.48636937   0.48095983
H    3.29262877   1.23032951  -1.15097952
H    4.22746849   0.98156959   2.18893909
H    5.62095785  -0.19291992   1.94565928
H    6.31134796  -2.18080926  -1.06408966
H    5.85611820  -2.16226912   0.64520979
H    6.83584785  -0.82065970  -0.05991998

