%chk=mol_5757.chk
# wB97XD/Def2SVP opt freq pop=full gfinput

C 4 H 4 N 2 O 1

1 2
N    0.93972963   0.12798995   0.13419995
C    2.31325912  -0.03267999   0.06691997
C    3.00096893  -1.18217957   0.01193000
C    2.36540890  -2.50837922   0.08049997
O    3.02392864  -3.53160858  -0.05883998
C    3.05336881   1.20185959   0.04879998
N    3.63064861   2.20748925   0.01601999
H    0.62117976   1.06368959  -0.12420996
H    0.39766985  -0.59169978  -0.33609989
H    4.08475828  -1.20304954  -0.05792998
H    1.27982950  -2.53468895   0.26292989

