%chk=mol_6183.chk
# wB97XD/Def2SVP opt pop=full gfinput

C 5 H 11 N 1 O 1

1 2
O    5.015314   6.669940  -0.761503
C    4.379384   4.093714  -1.162862
C    5.752364   2.444644   0.754662
C    8.579659   2.396494   0.217715
C   10.172736   4.696971   1.059097
N   12.190321   2.909158   1.838250
C   10.226404   0.932637   2.129570
H    4.059566   7.659041  -1.981076
H    4.881522   3.577856  -3.101948
H    2.334341   3.894197  -0.925323
H    5.005922   0.516254   0.635439
H    5.395584   3.141330   2.673358
H    8.983607   1.817387  -1.737962
H    9.393847   5.782392   2.643122
H   10.715219   6.009234  -0.442763
H   13.437257   2.530891   0.417157
H   10.810556  -0.960472   1.539371
H    9.461595   0.820066   4.052102

