%chk=mol_4979.chk
# wB97XD/Def2SVP opt pop=full gfinput

C 4 H 8 N 2 O 1

1 2
C    1.949763  -0.059583   0.231473
N    4.703812   0.002835   0.064742
C    5.770600   2.150036   1.473930
C    8.341723   1.226111   2.387159
C    7.943577  -1.572479   2.546179
O    9.298757  -3.093198   3.624325
N    5.820489  -2.124619   1.141829
H    1.204285  -1.651262  -0.862773
H    1.138352   1.665510  -0.575044
H    1.281726  -0.252694   2.182747
H    4.610686   2.632143   3.126344
H    5.936990   3.836087   0.287692
H    9.833001   1.612862   1.008037
H    8.829803   2.009081   4.234083
H    5.261942  -3.928873   0.818365

