%chk=mol_4555.chk
# wB97XD/Def2SVP opt freq pop=full gfinput

C 5 H 7 N 1 O 1

1 2
C    0.83576971  -0.24283992   1.76890934
C    1.51440942  -0.08841997   0.62430972
C    2.51546907   0.98986959   0.36398986
O    3.73866868   0.35007989   0.00823000
C    4.80240822   1.28238952  -0.22233991
C    4.67953825   1.97690916  -1.51552939
N    4.57940817   2.54651904  -2.52188897
H    0.12447996  -1.05540967   1.88390923
H    0.97450966   0.42455983   2.61340904
H    1.34123945  -0.78810972  -0.19047993
H    2.66627908   1.61587942   1.25089955
H    2.16181898   1.61655939  -0.46153983
H    5.73265791   0.70463973  -0.21629992
H    4.86297798   1.99481928   0.60806978

