%chk=mol_5824.chk
# wB97XD/Def2SVP opt pop=full gfinput

C 4 H 6 N 2 O 1

1 2
N    1.941712   0.033921  -0.255982
C    4.480918  -0.032465  -0.049643
N    5.916751  -1.965164   0.127424
C    5.857206   2.300987   0.000000
C    6.981744   4.248747   0.000000
C    8.346127   6.611925   0.000000
O    6.634847   8.656514  -0.328982
H    1.112765   1.692571   0.232323
H    1.002859  -1.500273   0.389057
H    4.846448  -3.566461   0.034317
H    9.741916   6.685039  -1.523894
H    9.344110   6.899730   1.787133
H    5.754764   8.346392  -1.910910

