%chk=mol_1750.chk
# wB97XD/Def2SVP opt pop=full gfinput

C 6 H 13 N 1

1 2
C    4.780894  -1.697314  -0.433881
N    7.186307  -0.438473   0.029461
C    7.272139   2.028243  -1.236675
C    9.762023   3.475093  -0.724710
C   12.090467   2.049238  -1.686977
C    9.664362   6.048843  -1.971721
C    9.856981   8.241265  -0.719324
H    4.770765  -3.533844   0.517917
H    4.473511  -2.027411  -2.453696
H    3.200572  -0.596227   0.321745
H    8.608383  -1.554640  -0.634305
H    5.687547   3.187892  -0.566049
H    7.027117   1.770957  -3.280980
H    9.967436   3.715844   1.327268
H   11.908695   1.570778  -3.693356
H   12.382620   0.292832  -0.633965
H   13.805602   3.187609  -1.458037
H    9.430206   6.092382  -4.015063
H   10.099717   8.302077   1.316875
H    9.779861  10.031157  -1.719084

