%chk=mol_6502.chk
# wB97XD/Def2SVP opt freq pop=full gfinput

C 6 H 6 S 1

1 2
C    2.66665888  -1.14606953   0.37885988
C    2.20640922   0.09486996   0.16326994
C    2.99452877   1.28631949   0.06611998
C    2.41765904   2.52129912  -0.15552995
S    3.57317877   3.78259850  -0.23050991
C    4.85966778   2.68907905   0.03289999
C    4.41606855   1.39162946   0.17468995
H    1.97760928  -1.98279929   0.43503985
H    3.72013879  -1.36707938   0.50414979
H    1.12855947   0.20681992   0.05141998
H    1.36950946   2.75719905  -0.27915990
H    5.87900782   3.04757881   0.07140998
H    5.09241819   0.56408983   0.34819984

