%chk=mol_4908.chk
# wB97XD/Def2SVP opt pop=full gfinput

C 4 H 8 N 2 O 1

1 2
C    2.163623  -0.471921  -0.042802
C    5.024687  -0.353001  -0.152180
O    5.777630   2.222016   0.242660
C    8.295822   2.679329   0.188387
N    9.985785   0.968031  -0.203637
N   12.401252   2.011103  -0.150252
C   14.083883   0.301733  -0.588782
H    1.494906  -2.408248  -0.315773
H    1.328326   0.735009  -1.501917
H    1.473552   0.223385   1.780273
H    5.678230  -0.998059  -2.007796
H    5.829370  -1.550104   1.333013
H    8.680476   4.698521   0.520109
H   16.099503   0.815058  -0.612706
H   13.610771  -1.696237  -0.951893

