%chk=mol_6972.chk
# wB97XD/Def2SVP opt freq pop=full gfinput

C 6 H 7 N 1

1 2
C    1.99466932  -0.59041977  -1.20418954
C    2.11305928   0.34021989  -0.24728991
C    3.24613881   1.25066960  -0.06643997
N    3.55142879   2.18746924  -1.14152956
C    2.98928905   2.73456883   0.08995996
C    3.84998870   3.49695873   0.94480962
C    4.56904840   4.13823843   1.66064942
H    1.12228954  -1.23372960  -1.25483954
H    2.77149916  -0.73044974  -1.95026934
H    1.31031954   0.42242986   0.48383984
H    4.10690832   0.82442969   0.43969983
H    2.83796883   2.14470935  -1.86862934
H    1.96610928   3.08903885   0.01508999
H    5.21464825   4.70736837   2.28852916

