%chk=mol_1849.chk
# wB97XD/Def2SVP opt freq pop=full gfinput

C 5 H 10 N 2

1 2
C    2.07837915  -0.00193000   2.49603915
N    2.90044904   0.02914999   1.50000942
N    3.84951854   0.99007964   1.60685933
C    4.82258844   1.01989961   0.51617980
C    5.90534782   2.07708931   0.83386964
C    6.93945742   1.03245962   0.35682988
C    5.91146803  -0.05114998   0.75616974
H    1.26363945  -0.74267972   2.50331926
H    2.14102936   0.67638969   3.36466885
H    3.43923879   1.90703928   1.79887927
H    4.41634798   1.06953967  -0.49965981
H    6.02202797   2.34501910   1.89134932
H    5.85868788   2.99452877   0.24074991
H    7.14459705   1.07240963  -0.71940976
H    7.88666725   1.01614964   0.90135968
H    5.87229824  -0.92338967   0.09813996
H    6.03019762  -0.39372984   1.79166925

