%chk=mol_0047.chk
# wB97XD/Def2SVP opt pop=full gfinput

C 2 H 5 N 1 O 1

1 2
C    1.875175   0.010261  -0.013058
C    4.699106   0.127783   0.049322
N    5.857546   2.268087  -0.201558
O    8.457337   1.850552   0.013701
H    1.279042  -1.946682  -0.283591
H    1.143908   1.182704  -1.550936
H    1.131322   0.697025   1.789325
H    5.723716  -1.646859   0.421163
H    9.143685   3.560112  -0.119242

