%chk=mol_6180.chk
# wB97XD/Def2SVP opt freq pop=full gfinput

C 5 H 11 N 1 O 1

1 2
O    2.36143899   0.91865963  -1.66576934
C    2.31932902   1.73965943  -0.50464982
C    3.14918876   1.10424960   0.60278982
C    4.63251829   1.17249966   0.26601988
C    5.34034777   2.54450893   0.38640985
C    6.48356771   1.73898935   1.02355957
N    5.47879791   0.72148973   1.40843940
H    1.75748932   1.31534946  -2.31708908
H    1.27485955   1.81896925  -0.18609993
H    2.68565893   2.73690891  -0.76682973
H    2.85187888   0.05597998   0.72621971
H    2.94418883   1.62461948   1.54628932
H    4.87976837   0.64539981  -0.66652977
H    4.86043787   3.25425863   1.07103956
H    5.57547760   3.05103898  -0.55285978
H    7.23000717   1.37366939   0.30843988
H    6.99460745   2.21965909   1.86158931
H    5.79992771  -0.24274991   1.33740962

