%chk=mol_6246.chk
# wB97XD/Def2SVP opt freq pop=full gfinput

C 4 H 4 N 2 O 1

1 2
O    2.00103927  -0.58569980  -1.04958963
C    2.12283921   0.14938995  -0.07524997
C    1.29626942  -0.00335000   1.10553956
N    0.66276973  -0.13041995   2.07487917
C    3.18843889   1.18200958  -0.01553999
C    3.43048859   2.07438922  -1.20915949
N    2.73529887   2.58086920  -0.03346999
H    4.03565836   0.95130968   0.61994976
H    2.82691884   1.93001926  -2.09834909
H    4.43265820   2.44509912  -1.38565946
H    3.35260868   3.17831898   0.52232981

