%chk=mol_5400.chk
# wB97XD/Def2SVP opt freq pop=full gfinput

C 4 H 11 N 1 O 2

1 2
C    3.21631861  -1.00990963   0.24787991
O    2.57335901  -0.03605999   1.05962956
C    2.88526893   1.29893947   0.63572973
C    1.94780922   2.30208921   1.37169945
N    1.86740935   2.12166905   2.83393908
O    4.27555847   1.60923934   0.73507971
C    4.78231812   1.63005948   2.06052923
H    2.89166880  -1.99962926   0.58033979
H    4.30286837  -0.95101964   0.35569987
H    2.93356895  -0.88820964  -0.80253971
H    2.63752913   1.37816954  -0.43078983
H    0.93249965   2.15561938   0.98338962
H    2.25459933   3.33075881   1.15686953
H    1.75066936   1.12007952   3.00785875
H    1.02726960   2.57874894   3.18265867
H    5.87485790   1.62859929   2.00127912
H    4.47411823   0.74695969   2.62812901
H    4.48374844   2.54805899   2.57280922

