%chk=mol_0720.chk
# wB97XD/Def2SVP opt freq pop=full gfinput

C 5 H 12 O 1

1 2
C    0.98577964  -0.11680995   0.00477000
C    2.50531912  -0.06436998   0.01086000
C    3.01517892   1.37392950  -0.00255000
C    4.53830862   1.43175948   0.00093000
O    4.93428850   2.80218887   0.00299000
C    6.34870768   2.93933892   0.00073000
H    0.64219975  -1.15587950   0.01854999
H    0.58047980   0.36323988  -0.89165962
H    0.57225978   0.38949987   0.88282967
H    2.88728881  -0.60377973  -0.86376965
H    2.87916875  -0.58364975   0.90106964
H    2.62901902   1.92148936   0.86612970
H    2.63430905   1.90374923  -0.88449967
H    4.93879795   0.93605965  -0.89106971
H    4.93495798   0.93554962   0.89430970
H    6.59171772   4.00541830   0.01435000
H    6.77476740   2.49533916  -0.90426964
H    6.78140783   2.47104907   0.89026970

