%chk=mol_6087.chk
# wB97XD/Def2SVP opt freq pop=full gfinput

C 4 H 4 N 2 O 1

1 2
O    1.03962958  -0.04625998   0.56254977
C    2.19966936   0.15448993   0.24457991
N    2.93061900   1.31291950   0.39955986
C    4.09721851   1.04482961  -0.10013996
N    4.37077808  -0.21116991  -0.60565972
C    4.28584862  -1.36079955   0.29831991
C    3.05174875  -0.88621968  -0.38950986
H    4.91584778   1.77446938  -0.20277993
H    4.78367853  -2.24022913  -0.08547997
H    4.44684839  -1.13108957   1.34345949
H    2.68561888  -1.37669945  -1.27909946

