%chk=mol_5433.chk
# wB97XD/Def2SVP opt freq pop=full gfinput

C 4 H 8 N 2 O 1

1 2
C    5.28994846  -0.87919962  -0.98125964
O    5.87211800   0.35443988  -0.57769978
N    4.85252810   1.31251943  -0.47343981
C    5.37465811   2.42689919  -0.08281997
C    4.47089815   3.57840848   0.08731997
C    3.73345852   3.76391864   1.38623941
N    4.91460800   4.56310797   1.08199966
H    6.08312798  -1.62765944  -1.05685961
H    4.81255817  -0.77058971  -1.95994925
H    4.55850792  -1.21394956  -0.23917991
H    6.45199776   2.55876899   0.11854996
H    4.02694845   3.97475863  -0.81820965
H    3.84771872   3.00995898   2.15584922
H    2.77775884   4.27195835   1.36925948
H    4.64905834   5.50696802   0.79449970

