%chk=mol_0486.chk
# wB97XD/Def2SVP opt pop=full gfinput

C 5 H 9 N 1

1 2
C    1.913329  -0.044276  -0.024585
N    4.659214   0.022582   0.089592
C    5.594912   2.618556   0.000000
C    8.323677   2.618556   0.000000
C   10.572753   2.618556   0.000000
C   13.301517   2.618556   0.000000
H    1.267855  -2.007343   0.058770
H    1.203737   0.782876  -1.783467
H    1.072268   0.954652   1.580302
H    5.390860  -0.945487  -1.406296
H    4.897377   3.675121   1.639318
H    4.900948   3.574171  -1.702511
H   14.046240   4.547664  -0.022280
H   14.046107   1.634651  -1.659539
H   14.046126   1.673220   1.681800

