%chk=mol_0919.chk
# wB97XD/Def2SVP opt pop=full gfinput

C 4 H 6 O 2

1 2
O    1.841652  -0.740659   0.047224
C    4.375831  -0.904631   0.916952
C    5.855203   1.510023   0.383652
O    4.825567   3.373312  -0.553501
C    8.585517   1.497419   1.071040
C   10.083087   3.445443   0.473301
H    1.560744   1.037006  -0.387299
H    5.283429  -2.491774  -0.044975
H    4.340172  -1.241739   2.954908
H    9.310416  -0.145055   2.056041
H    9.363196   5.090563  -0.526459
H   12.073422   3.437506   0.966708

