%chk=mol_3313.chk
# wB97XD/Def2SVP opt freq pop=full gfinput

C 5 H 10 O 2

1 2
C    1.90867937  -0.69455969  -1.25176954
O    1.71293938   0.40310985  -0.36916989
C    2.93654895   1.03996956   0.07122998
C    3.74602866   0.24455991   1.04907954
C    3.60150862   1.97565925  -0.90427965
C    2.81951904   2.53900909   0.24596991
O    3.60979843   3.15178871   1.27746952
H    2.57567883  -0.42357984  -2.07532930
H    0.93773967  -0.97570968  -1.66861928
H    2.31190920  -1.55213940  -0.70646977
H    4.63913870   0.78251970   1.38429952
H    4.08576870  -0.69341975   0.59907979
H    3.14379883   0.00385000   1.93104923
H    3.17409897   2.07487917  -1.89427924
H    4.68118811   2.05915928  -0.87756968
H    1.84793925   2.97531891   0.03444999
H    3.63338876   4.11782837   1.16677952

