%chk=mol_3234.chk
# wB97XD/Def2SVP opt pop=full gfinput

C 5 H 10 O 2

1 2
C    4.706495  -1.749244   2.157992
C    3.932936   0.475984   0.556146
O    1.800323   0.570187  -0.378928
C    5.843940   2.665648   0.286955
C    5.775948   3.670037  -2.420002
C    5.132912   4.746747   2.159919
O    8.382390   1.895622   0.762750
H    6.364201  -2.665289   1.335677
H    3.164516  -3.124492   2.225530
H    5.112465  -1.114258   4.080845
H    6.258962   2.171919  -3.767471
H    7.169527   5.179494  -2.685868
H    3.909522   4.406350  -2.928830
H    5.198429   4.039762   4.106583
H    3.223457   5.467904   1.815403
H    6.467871   6.326387   2.056192
H    8.637239   1.785659   2.579363

