%chk=mol_4463.chk
# wB97XD/Def2SVP opt freq pop=full gfinput

C 5 H 9 N 1 O 1

1 2
C    0.78761971   0.01977999   0.03061999
C    2.26350904  -0.03375999   0.25954992
C    3.10534883   0.92719966  -0.13768995
N    4.45496845   0.84913969   0.08868997
C    5.34806824   1.83149922  -0.29999989
C    6.77463770   1.52530944   0.07370997
O    5.03962803   2.87596893  -0.86683971
H    0.46895984  -0.85230970  -0.54832977
H    0.48472980   0.91971964  -0.51377982
H    0.26149991   0.00721000   0.98994958
H    2.63316917  -0.91365963   0.77958971
H    2.75431895   1.81763935  -0.65880972
H    4.81089830   0.03377999   0.57217979
H    6.93922710   0.44899982   0.17622994
H    7.01169729   2.01898932   1.01972961
H    7.43960714   1.89634931  -0.71135974

