%chk=mol_3335.chk
# wB97XD/Def2SVP opt freq pop=full gfinput

C 5 H 10 O 2

1 2
C    1.90189934  -0.51610982  -1.24210954
O    2.19006896   0.08992996   0.01014000
C    3.06111884   1.23824954  -0.03324999
C    2.43588924   2.56306887  -0.52063978
C    3.16819882   3.28717875   0.62456977
O    4.38834858   3.97221851   0.27712992
C    3.31606889   1.92488921   1.32659960
H    1.24742949  -1.37446940  -1.07084954
H    2.82587910  -0.86269969  -1.71367943
H    1.39059949   0.19443993  -1.89755940
H    4.00201845   0.99885958  -0.54734981
H    1.34363949   2.60465884  -0.44219986
H    2.72698879   2.86487889  -1.53080952
H    2.51861906   3.97933841   1.17161953
H    4.95715809   3.31324863  -0.15518995
H    4.29752827   1.72517931   1.76636934
H    2.54674911   1.73068941   2.08237934

