%chk=mol_0390.chk
# wB97XD/Def2SVP opt freq pop=full gfinput

C 5 H 13 N 1

1 2
C    1.00077963  -0.12914996   0.01508999
C    2.52026892  -0.04547998   0.01574999
C    2.99378872   1.40799952  -0.00905000
N    4.45635843   1.45801950   0.00094000
C    4.93156815   2.84070897  -0.02535999
C    6.45158768   2.86865902  -0.02556999
H    0.67784977  -1.17398965   0.03795999
H    0.58376974   0.33642986  -0.88354963
H    0.58047980   0.37623987   0.89032966
H    2.90796900  -0.58513981  -0.85725969
H    2.90615892  -0.55268979   0.90849966
H    2.59712911   1.93217933   0.86871970
H    2.60391903   1.90378928  -0.90594965
H    4.82208824   0.95344961  -0.80642968
H    4.56742859   3.38219881   0.85478967
H    4.56409836   3.35655856  -0.91982967
H    6.85800743   2.37954926   0.86631966
H    6.80861759   3.90408850  -0.03355999
H    6.85918713   2.36579919  -0.90948969

