%chk=mol_3644.chk
# wB97XD/Def2SVP opt freq pop=full gfinput

C 6 H 8 O 1

1 2
O    2.93450880  -1.12787962  -0.47548983
C    2.32115912   0.03829999   0.07390997
C    3.30814886   1.21097946   0.05999998
C    2.80294895   2.40398932   0.83519971
C    2.70762897   3.47073889   0.02532999
C    3.12340879   3.10157895  -1.30384946
C    3.47668886   1.80866933  -1.31723940
H    2.25643921  -1.82488930  -0.48317984
H    2.02229929  -0.19960992   1.10086954
H    1.41753948   0.25949991  -0.50605983
H    4.28647852   0.89467967   0.44040984
H    2.57143903   2.39561915   1.89030921
H    2.38457918   4.46179819   0.30697986
H    3.14729881   3.77908850  -2.14390922
H    3.83770871   1.25731945  -2.17307901

