%chk=mol_5090.chk
# wB97XD/Def2SVP opt pop=full gfinput

C 5 H 11 N 1 O 1

1 2
C    1.670121   4.395824  -1.028842
N    3.416379   2.517437  -0.020485
C    6.029115   3.417286  -0.199498
C    7.881689   1.415178   0.775619
C    7.791568  -1.078334  -0.676031
C    8.692003  -0.863624  -3.373463
O    9.846815   0.950872  -4.239430
H   -0.264089   3.675820  -0.899736
H    2.057137   4.783445  -3.024034
H    1.764078   6.166914   0.036585
H    2.982366   2.191043   1.829198
H    6.258659   5.135350   0.937436
H    6.484482   3.907084  -2.158351
H    7.481218   1.032962   2.774024
H    9.799761   2.197922   0.699142
H    5.875707  -1.857998  -0.703810
H    9.010857  -2.468757   0.255661
H    8.346278  -2.550280  -4.550574

