%chk=mol_6435.chk
# wB97XD/Def2SVP opt freq pop=full gfinput

C 6 H 8 S 1

1 2
C    0.85564971  -0.00227000  -0.00323000
C    2.34904909   0.00845000  -0.00418000
C    3.21664882   1.09068966  -0.00123000
C    2.80419898   2.52597904   0.00383000
C    4.58257866   0.65335977  -0.00392000
C    4.70213795  -0.71700972  -0.00877000
S    3.18258882  -1.48963952  -0.01025000
H    0.44648981   1.01239967   0.00895000
H    0.47354981  -0.52443981   0.88022965
H    0.47278982  -0.50376981  -0.89821970
H    3.67457843   3.19021893   0.00882000
H    2.20513940   2.74861884   0.89284968
H    2.20953918   2.75592899  -0.88627970
H    5.43902826   1.31725955  -0.00242000
H    5.61192799  -1.30130959  -0.01158000

