%chk=mol_2156.chk
# wB97XD/Def2SVP opt pop=full gfinput

C 6 H 8 O 1

1 2
C    3.620451  -0.000359  -0.875586
C    1.647633   1.469432   0.524588
C    1.647369  -1.470075   0.524456
C   -1.136784  -1.849154  -0.225973
C   -1.920226  -0.000548  -2.449255
C   -1.136557   1.849097  -0.225803
O   -2.701288  -0.000170   1.361170
H    3.581107  -0.000359  -2.923690
H    5.525918  -0.000359  -0.116539
H    2.060898   2.396305   2.299778
H    2.060671  -2.397155   2.299740
H   -1.929940  -3.751938  -0.229810
H   -3.918555   0.000076  -2.976394
H   -0.726260  -0.000775  -4.129392
H   -1.929769   3.751541  -0.229507

