%chk=mol_6673.chk
# wB97XD/Def2SVP opt freq pop=full gfinput

C 3 H 5 N 1 O 2 S 1

1 2
N    1.04164958   0.28051987   0.00627000
S    2.70710897   0.02095999   0.00795000
O    2.96922898  -0.61849976   1.27679944
O    2.96981883  -0.63141972  -1.25494945
C    3.34389877   1.70791936  -0.00108000
C    4.81091785   1.65894938  -0.00029000
C    6.01177788   1.62956941  -0.00003000
H    0.63805979  -0.11889996  -0.84405971
H    0.63793975  -0.11032996   0.86071968
H    2.96260905   2.20983911   0.89343965
H    2.96277881   2.20049930  -0.89982969
H    7.07756758   1.59523940   0.00057000

