%chk=mol_5276.chk
# wB97XD/Def2SVP opt pop=full gfinput

C 5 H 11 N 1 O 1

1 2
C    3.497297  -0.393687  -2.850368
O    4.079843   0.422524  -0.360012
C    5.691515   2.577435  -0.308025
C    4.356102   4.986156  -1.147857
C    5.648259   7.020635   0.397617
N    5.908304   5.843468   2.874803
C    6.536411   3.176894   2.405735
H    2.345433  -2.104550  -2.717974
H    5.226264  -0.846408  -3.891097
H    2.410894   1.043526  -3.863753
H    7.371009   2.231861  -1.474289
H    2.326763   4.897905  -0.720439
H    4.553994   5.312247  -3.181335
H    7.508864   7.474623  -0.390002
H    4.527236   8.753382   0.491423
H    7.271440   6.700156   3.926945
H    8.584213   2.906550   2.571086
H    5.617305   1.967564   3.810765

