%chk=mol_4041.chk
# wB97XD/Def2SVP opt pop=full gfinput

C 5 H 11 N 1 O 1

1 2
C    1.967110  -0.108206   0.198913
C    4.778437  -0.070109   0.012491
C    6.133616  -1.221651  -2.210394
O    4.577181  -2.215950  -4.193113
C    6.067287   1.612390  -1.899515
C    8.387001   3.042251  -1.176430
N    9.854619   3.499678  -3.456158
H    1.331539   1.315193   1.558703
H    1.322752  -1.959381   0.859258
H    1.047532   0.290092  -1.611010
H    5.645595  -0.313713   1.852895
H    7.896976  -2.196391  -1.825872
H    5.072289  -1.521248  -5.822152
H    4.874095   2.698132  -3.165367
H    9.534235   2.007721   0.201407
H    7.847768   4.848660  -0.325071
H   10.500962   1.820619  -4.141165
H   11.420579   4.522757  -2.998372

