%chk=mol_6349.chk
# wB97XD/Def2SVP opt freq pop=full gfinput

C 5 H 9 N 1 O 1

1 2
O    0.77990967   1.63069940  -0.37101987
N    2.12428904   1.99761927  -0.49437982
C    2.86199903   1.04702961  -0.01861999
C    4.40339851   1.13242948  -0.01785999
C    5.11357832   2.15101933  -0.95073968
C    6.15974760   2.34210920   0.16441993
C    5.07716799   1.88538933   1.16047955
H    0.31802988   2.39976931  -0.75489968
H    2.41940928   0.12161995   0.39031985
H    4.82931805   0.12457995  -0.14025994
H    4.53911829   3.05890894  -1.16837955
H    5.49882793   1.74382925  -1.88941932
H    7.01082706   1.65551937   0.09237996
H    6.53208780   3.36041880   0.29927990
H    5.43127823   1.25802958   1.98288918
H    4.47903824   2.70703912   1.57186949

