%chk=mol_3827.chk
# wB97XD/Def2SVP opt pop=full gfinput

C 5 H 9 N 1 O 1

1 2
C    3.218279  -0.218339  -0.243491
C    1.632761  -2.249284   1.066221
C   -0.797634  -2.861310  -0.333650
C   -2.798798  -0.824828  -0.480557
N   -2.624452   1.588069  -0.045297
O   -0.271478   2.407908   0.865098
C    1.674524   2.095083  -0.972888
H    4.164257  -0.981580  -1.920850
H    4.721103   0.351281   1.067242
H    2.775535  -3.969030   1.238999
H    1.188430  -1.649353   3.000413
H   -1.700243  -4.486096   0.581866
H   -0.381573  -3.444479  -2.277309
H   -4.654849  -1.478900  -1.172329
H    2.866790   3.785858  -0.963590
H    0.891119   1.911080  -2.883968

