%chk=mol_4283.chk
# wB97XD/Def2SVP opt pop=full gfinput

C 5 H 10 N 2

1 2
C    3.504497   0.305493  -1.448437
N    3.409878  -0.052950   1.274696
C    0.994941   0.085340  -0.090480
C   -0.658570   2.346435   0.324655
C   -3.276785   1.331218  -0.310879
N   -3.138193  -1.343917   0.394764
C   -0.641997  -2.220844  -0.436961
H    4.122570   2.149847  -2.081571
H    4.191356  -1.274375  -2.551508
H    3.798690  -1.873569   1.780122
H   -0.578351   2.954851   2.304426
H   -0.161439   3.945049  -0.890344
H   -4.766418   2.323721   0.721271
H   -3.653181   1.506830  -2.341541
H   -4.532640  -2.354202  -0.459033
H   -0.703167  -2.769639  -2.435025
H   -0.023848  -3.838072   0.694947

