%chk=mol_7012.chk
# wB97XD/Def2SVP opt freq pop=full gfinput

C 6 H 11 N 1

1 2
C    2.46432924   3.40804863  -0.52177978
C    2.86688900   2.14716911  -0.72358972
C    3.24116874   1.19534957   0.37822986
C    4.69130802   0.76189971   0.19305992
C    5.80029774   1.76368928   0.59972978
C    6.50072765   0.52984977   1.19033957
N    5.16797781  -0.10399996   1.31080961
H    2.19503927   4.04672861  -1.35795951
H    2.39042926   3.83061862   0.47592983
H    2.91299891   1.76666927  -1.74244928
H    2.57856917   0.32393989   0.32081985
H    3.08848882   1.65343928   1.36298954
H    4.87166834   0.29970989  -0.78906971
H    5.50218821   2.50612903   1.34944952
H    6.32220793   2.26537919  -0.21866992
H    7.17164707   0.01620999   0.49166983
H    7.02220726   0.68704975   2.13799930
H    5.15247822  -1.10303962   1.11211967

