%chk=mol_3393.chk
# wB97XD/Def2SVP opt pop=full gfinput

C 6 H 10 O 1

1 2
C    4.310579   0.319402   4.572514
O    6.374500   1.913442   3.932048
C    5.906963   3.521372   1.793275
C    3.995183   5.583101   2.466338
C    8.471075   4.653885   1.025743
C    8.362605   6.061618  -1.369182
C    8.289246   7.230489  -3.315468
H    4.972058  -1.058549   5.963390
H    3.615896  -0.702884   2.915451
H    2.785664   1.412438   5.436837
H    5.177226   2.370000   0.229432
H    4.599612   6.626740   4.148421
H    2.145160   4.766513   2.900389
H    3.725746   6.919931   0.912643
H    9.860402   3.123509   0.852115
H    9.182557   5.875574   2.542305
H    8.231704   8.276188  -5.034249

