%chk=mol_7156.chk
# wB97XD/Def2SVP opt freq pop=full gfinput

C 6 H 9 N 1

1 2
C    1.82090926  -0.31589988   1.48639941
C    2.26592922   0.09436997   0.09186997
C    2.97943902   1.41699946   0.10914996
C    4.30673838   1.63645947   0.00000000
C    5.34143782   0.55049980  -0.10116997
C    4.77606821   2.96180892   0.00000000
N    5.16028786   4.04679823   0.00000000
H    1.27612948  -1.26386952   1.44482946
H    1.15875947   0.43537983   1.92891932
H    2.68046904  -0.44825983   2.15126920
H    1.38603950   0.18686992  -0.55733979
H    2.88016891  -0.69720978  -0.34878987
H    2.31476927   2.27799916   0.20047992
H    4.95618820  -0.43743983   0.16436994
H    6.17555761   0.75200975   0.58125979
H    5.73919773   0.49958980  -1.12045956

