%chk=mol_4452.chk
# wB97XD/Def2SVP opt freq pop=full gfinput

C 4 H 9 N 1 O 2

1 2
C    2.09726930  -0.35475987   1.43213952
C    2.28184915   0.14481995   0.01138000
C    2.97934890   1.48749948   0.01297000
C    2.12334919   2.73164892   0.21915992
O    2.22811913   3.59630871  -0.89984965
N    4.27318859   1.51094937  -0.13187996
O    4.77778816   2.81590891  -0.09156997
H    1.59981942  -1.33003950   1.43327940
H    1.48943937   0.34075987   2.02107930
H    3.06252885  -0.46198985   1.93897927
H    1.31366944   0.24184991  -0.48925981
H    2.88162875  -0.57140976  -0.56035978
H    2.45293927   3.26048875   1.11943960
H    1.07324970   2.45587921   0.34454989
H    3.18994880   3.72510862  -1.02023959
H    5.74120808   2.66654897  -0.16207995

