%chk=mol_6005.chk
# wB97XD/Def2SVP opt pop=full gfinput

C 5 H 9 N 1 O 1

1 2
O    2.100242   0.081126   0.794554
C    4.347617   0.032465   0.188292
C    5.783205  -2.422610  -0.003458
C    7.570659  -2.333245  -2.251117
N    9.186583  -0.085945  -2.226853
C    7.657756   2.220561  -2.298266
C    5.876425   2.426163  -0.053423
H    4.441707  -3.981766  -0.229054
H    6.821703  -2.700211   1.766044
H    8.771202  -4.019750  -2.242595
H    6.496312  -2.385968  -4.023435
H   10.302711  -0.090953  -0.653108
H    8.921946   3.859652  -2.325119
H    6.585506   2.277007  -4.071793
H    6.924599   2.701137   1.710316
H    4.594850   4.029142  -0.313487

