%chk=mol_4738.chk
# wB97XD/Def2SVP opt pop=full gfinput

C 5 H 11 N 1 O 1

1 2
C    0.290961  -1.944868   1.188600
C    3.033653  -2.122125   0.296460
N    3.263878  -4.121266  -1.622840
C    3.998245   0.428836  -0.740697
O    2.388897   1.269310  -2.750534
C    2.999222   3.494292  -3.904099
C    4.946906   5.043282  -3.456838
H    0.083091  -0.454309   2.608824
H   -0.318173  -3.723856   2.055209
H   -1.005240  -1.526993  -0.370311
H    4.221081  -2.657314   1.906942
H    2.401766  -3.503552  -3.238631
H    2.288969  -5.683503  -1.061251
H    5.939692   0.200840  -1.433036
H    3.982031   1.828858   0.788432
H    1.610954   3.902266  -5.357355
H    6.364239   4.676619  -2.027525
H    5.163941   6.756924  -4.563556

