%chk=mol_4558.chk
# wB97XD/Def2SVP opt freq pop=full gfinput

C 5 H 7 N 1 O 1

1 2
C   -0.13712995  -0.20727992   0.71801972
C    0.84892964   0.24792992  -0.31066987
C    1.89659917   1.03264964  -0.01963999
O    2.86697888   1.52190936  -0.84805971
C    2.79089904   1.17716956  -2.23510909
C    3.91071844   1.78763926  -2.96946883
N    4.78429794   2.25680923  -3.57520866
H   -0.14015995  -1.30019951   0.77269971
H   -1.14228964   0.12659995   0.44286984
H    0.09137997   0.18423994   1.71436942
H    0.65971977  -0.10177996  -1.31991947
H    2.09264922   1.38533950   0.98931968
H    1.84595919   1.54235947  -2.65447903
H    2.84031892   0.08772997  -2.34794927

