%chk=mol_5546.chk
# wB97XD/Def2SVP opt freq pop=full gfinput

C 4 H 5 N 1 O 2

1 2
N    1.04435956  -0.02655999  -0.11431996
C    2.37292910   0.10482996  -0.06332998
C    3.20369887   1.20134950  -0.02949999
C    4.50988817   0.67675978   0.01848999
O    5.67516756   1.33755946   0.05831998
C    4.40404844  -0.69050974   0.01612999
O    3.09091902  -1.04703963  -0.03286999
H    0.43561983   0.74694973   0.12503995
H    0.65249974  -0.94454968   0.07063997
H    2.89359879   2.23433900  -0.04430998
H    5.51603794   2.29695916   0.03665999
H    5.11586809  -1.50230944   0.04220999

