%chk=mol_0912.chk
# wB97XD/Def2SVP opt pop=full gfinput

C 4 H 6 O 2

1 2
O    1.861815  -0.002948  -0.108187
C    4.541579   0.166920   0.111418
C    5.398475   2.864522   0.055936
C    3.929610   4.922453  -0.165937
C    8.167529   3.252445   0.271780
O    9.653723   1.486289   0.481446
H    1.452973  -1.793804  -0.058393
H    5.377008  -0.887037  -1.461571
H    5.091829  -0.727356   1.894942
H    1.891181   4.730098  -0.329285
H    4.679283   6.828752  -0.193036
H    8.823528   5.230119   0.233287

