%chk=mol_2275.chk
# wB97XD/Def2SVP opt freq pop=full gfinput

C 7 H 10

1 2
C    1.88242936   0.37454987   1.43559945
C    3.06586862   0.98641962   1.27130949
C    3.80503869   1.04151964  -0.03832998
C    5.30415821   0.86857963   0.12880996
C    5.86509800  -0.34899986   0.01098000
C    6.16555786   2.02400923   0.36460987
C    5.77717781   3.29593873   0.51476979
H    1.38759947   0.36993986   2.40109897
H    1.38054955  -0.12259995   0.61072975
H    3.52055860   1.48631942   2.12600923
H    3.58025861   1.98597920  -0.54305977
H    3.42348886   0.25993991  -0.71007973
H    5.25948763  -1.23039949  -0.17466992
H    6.93518734  -0.50808984   0.10420997
H    7.23411703   1.82191932   0.41850984
H    4.74077797   3.61075878   0.48545983
H    6.51680756   4.07417822   0.67741972

