%chk=mol_3953.chk
# wB97XD/Def2SVP opt freq pop=full gfinput

C 4 H 7 N 1 O 2

1 2
C    0.86424965   0.12523995   0.11781996
C    2.37275910   0.03009999   0.06211998
C    3.17952871   1.06510961   0.88410968
C    3.92798853  -0.17687994   1.40712941
O    5.02644825  -0.41646984   1.85016930
N    2.88906884  -0.98554963   1.00838959
O    3.33444881  -2.16472912   0.36795986
H    0.40419987  -0.75887972  -0.33614987
H    0.51692981   1.00227964  -0.43780985
H    0.49455982   0.21018992   1.14528954
H    2.75249910  -0.11340995  -0.95830965
H    2.63591886   1.60733938   1.66310942
H    3.79067874   1.75170934   0.29466990
H    3.17416883  -2.82457900   1.06743956

