%chk=mol_6602.chk
# wB97XD/Def2SVP opt freq pop=full gfinput

C 6 H 9 N 1

1 2
C    0.98186964   0.06093998   0.01612999
C    2.46380901  -0.02120999   0.00316000
C    3.24063873  -1.11981952  -0.01251999
C    4.68723822  -0.72370970  -0.00543000
N    5.38451815  -1.20174956  -1.18160951
C    4.59450817   0.77130973  -0.00820000
C    3.30861878   1.15263963   0.00442000
H    0.52687985  -0.93529963   0.01160000
H    0.61764979   0.59970981  -0.86476970
H    0.63228977   0.58507979   0.91164964
H    2.88552880  -2.13902926  -0.00610000
H    5.18222809  -1.07663953   0.90520966
H    4.88165808  -0.87398970  -2.00510931
H    5.33322811  -2.21695924  -1.20481956
H    5.44808769   1.43186951  -0.01105000
H    2.94635892   2.16945910   0.00890000

