%chk=mol_3801.chk
# wB97XD/Def2SVP opt freq pop=full gfinput

C 5 H 4 O 2

1 2
O    0.99816960   0.09827997  -0.00000000
C    2.34236908  -0.03596999  -0.00000000
O    2.92785883  -1.10462952   0.00000000
C    3.05199885   1.21762955   0.00000000
C    3.64707875   2.24833918   0.00000000
C    4.35007858   3.46596861   0.00000000
C    3.71899867   4.64467812   0.00000000
H    0.73421973   1.03731966  -0.00000000
H    5.43638802   3.43264866  -0.00000000
H    2.63635898   4.72087812   0.00000000
H    4.28449869   5.57146788   0.00000000

