%chk=mol_0793.chk
# wB97XD/Def2SVP opt pop=full gfinput

C 6 H 12

1 2
C    1.645479   2.174111  -2.365975
C    4.454179   1.868410  -2.347985
C    5.931643   2.521877  -0.390531
C    8.775567   2.273133  -0.199309
C   10.053324   0.886886  -2.393546
C    9.957288   4.892387   0.128577
H    1.083437   3.414112  -3.922467
H    0.932618   2.988224  -0.603257
H    0.740073   0.335219  -2.639437
H    5.268783   1.069906  -4.055295
H    5.030451   3.313219   1.284768
H    9.163396   1.182043   1.522212
H    9.820435   1.904901  -4.181530
H    9.279519  -1.019432  -2.623734
H   12.084988   0.692037  -2.044306
H    9.633975   6.080666  -1.536876
H   12.001783   4.744668   0.419066
H    9.162961   5.871058   1.771940

