%chk=mol_6079.chk
# wB97XD/Def2SVP opt freq pop=full gfinput

C 5 H 7 N 1 O 1

1 2
O    0.91007966   0.01331999   0.16853994
C    2.13243914   0.03329999   0.09973996
N    2.85521889   1.18352950   0.25865990
C    4.22654819   1.29912949  -0.18668993
C    5.05168819   0.04415998   0.09774996
C    4.25325823  -1.20762956  -0.11531996
C    2.91182876  -1.20634961  -0.13522996
H    2.28573918   2.01693940   0.33548987
H    4.67099857   2.17285895   0.30049989
H    4.19657850   1.49525940  -1.26498950
H    5.40976763   0.05366998   1.13393962
H    5.93549776   0.03992998  -0.55038983
H    4.79330826  -2.14143920  -0.23925990
H    2.33244920  -2.11150932  -0.27302989

