%chk=mol_1120.chk
# wB97XD/Def2SVP opt pop=full gfinput

C 4 H 9 N 1 O 1

1 2
O    3.692052  -2.466282  -0.387356
C    3.939361   0.159663  -0.918804
C    5.513276   1.431581   1.134516
C    8.232497   0.633493   1.015558
C   10.181410   2.245127  -0.296668
N   10.096088   2.085785   2.454679
H    2.555911  -3.168088  -1.650600
H    2.041906   0.982582  -0.960567
H    4.809485   0.377019  -2.782660
H    4.762847   0.922867   2.997691
H    5.353254   3.487754   0.929197
H    8.470168  -1.401270   1.036175
H    9.617893   4.043693  -1.093944
H   11.760220   1.326380  -1.218533
H   11.476118   0.916309   3.131919

