%chk=mol_1518.chk
# wB97XD/Def2SVP opt freq pop=full gfinput

C 6 H 13 N 1

1 2
C    2.79271889  -1.46760941   0.77915972
C    2.24725914  -0.12078996   1.24418950
N    2.98984885   1.03677964   0.71021968
C    2.24506927   2.26483917   1.02311957
C    4.35590839   1.10152960   1.25415957
C    5.18285799   2.17421913   0.60089976
C    5.83262825   3.14158869   1.26226950
H    2.10021925  -2.26583910   1.06509960
H    3.75878859  -1.69764936   1.23614955
H    2.90422893  -1.49498940  -0.30915987
H    2.21302915  -0.09587996   2.34130907
H    1.20816958  -0.06765998   0.89287966
H    1.22660947   2.20996928   0.62200975
H    2.70232892   3.14145875   0.55302984
H    2.17903924   2.44249892   2.10243917
H    4.88488817   0.16362993   1.05054963
H    4.33767843   1.22662961   2.34480929
H    5.24601793   2.13703918  -0.48475984
H    5.79797792   3.21518874   2.34396911
H    6.41302776   3.88610864   0.72467977

