%chk=mol_5580.chk
# wB97XD/Def2SVP opt freq pop=full gfinput

C 5 H 9 N 1 O 1

1 2
N    0.92865968  -0.07178997  -0.08941997
C    2.37288904  -0.02653999   0.13723995
C    3.03616881   1.24681950  -0.45060983
O    3.20394874   1.16164958  -1.86882925
C    4.08975840   0.10260996  -2.24152923
C    3.77987862  -1.18802953  -1.54096949
C    2.97865868  -1.25793946  -0.46538982
H    0.50762981   0.81119972   0.18782994
H    0.51397979  -0.79544967   0.49167982
H    2.54726887  -0.02337999   1.21968961
H    2.42697906   2.13233924  -0.23558992
H    4.01778841   1.41805947   0.01177000
H    5.12137794   0.40674984  -2.03265929
H    3.99352860  -0.03407999  -3.32344866
H    4.21667862  -2.09321904  -1.95096934
H    2.75752902  -2.21914935  -0.01241000

