%chk=mol_3152.chk
# wB97XD/Def2SVP opt freq pop=full gfinput

C 5 H 10 O 2

1 2
C    1.04257965   0.49949983  -1.08283961
C    2.55192900   0.55800974  -1.19537961
O    3.06849885   1.22182965  -0.04558998
C    4.50764799   1.36375952   0.00179000
C    5.14567804   2.46444893  -0.85651964
O    5.89452791   2.97095895   0.27677989
C    5.07799816   2.17432904   1.17335951
H    0.60569972  -0.00359000  -1.94996929
H    0.62183976   1.50828946  -1.01028967
H    0.74384969  -0.03595999  -0.17574994
H    2.84199882   1.10855961  -2.09623909
H    2.96595883  -0.45426983  -1.24667954
H    5.00377846   0.39115986  -0.10494996
H    4.46053839   3.22193885  -1.24989951
H    5.80393791   2.10896921  -1.65387940
H    5.68739796   1.60497940   1.88044930
H    4.36134863   2.79742885   1.71740937

