%chk=mol_2550.chk
# wB97XD/Def2SVP opt pop=full gfinput

C 5 H 8 O 2

1 2
C    1.979715   0.030084   0.198383
C    4.821183  -0.000888  -0.082543
O    5.921948   1.981831   1.432885
C    8.388173   1.127883   2.154704
C    8.104128  -1.635690   2.820057
C    6.043061  -2.331393   1.025630
O    5.421473  -4.511910   0.559775
H    1.103562  -1.485306  -0.902193
H    1.209822   1.843636  -0.432199
H    1.422983  -0.206434   2.177834
H    5.427842   0.242414  -2.045137
H    9.674018   1.402952   0.552291
H    9.075013   2.251968   3.747478
H    9.835250  -2.706617   2.494004
H    7.414548  -1.887043   4.750564

