%chk=mol_3720.chk
# wB97XD/Def2SVP opt freq pop=full gfinput

C 7 H 8

1 2
C    1.00138962  -0.05438998   0.00366000
C    2.51999903   0.00000000   0.00000000
C    3.00201893   1.36116946   0.00000000
C    3.39929867   2.48306894   0.00000000
C    3.88131857   3.84423852   0.00000000
C    3.29839873   5.16535807   0.00000000
C    2.81794906   6.25422764   0.00000000
H    0.65699977  -1.09331954   0.00351000
H    0.58467978   0.44175985  -0.88056970
H    0.58887976   0.44016984   0.89044964
H    2.89529896  -0.53271979  -0.88098967
H    2.89945889  -0.53418982   0.87830967
H    4.57200813   3.87012839  -0.85944968
H    4.57200813   3.87012839   0.85944968
H    2.38473916   7.22796726   0.00000000

