%chk=mol_4780.chk
# wB97XD/Def2SVP opt freq pop=full gfinput

C 4 H 10 N 2 O 1

1 2
C    3.30632877  -0.80477971  -1.26737952
C    3.24554873  -0.19256993   0.12305995
N    3.35661864   1.26789951   0.08502997
N    2.15137911   1.98032928  -0.18478993
C    4.53535843   2.01145935   0.14075994
C    5.81359768   1.25073957   0.37916985
O    4.54244804   3.23816895   0.00671000
H    3.22977877  -1.89470923  -1.20565963
H    4.24506807  -0.55471981  -1.77126932
H    2.48533893  -0.44085982  -1.89384937
H    4.04791832  -0.60612977   0.74028969
H    2.29833913  -0.45418984   0.60920978
H    2.36854911   2.63568902  -0.94544965
H    2.00077915   2.60595894   0.61331975
H    5.76531744   0.71610975   1.33053946
H    6.64809752   1.95687926   0.43046984
H    6.00124788   0.55733979  -0.44327983

