%chk=mol_0049.chk
# wB97XD/Def2SVP opt pop=full gfinput

C 2 H 5 N 1 O 1

1 2
C    1.921001  -0.041593  -0.011206
C    4.755439   0.065989  -0.003307
N    5.914748  -2.232995   0.005518
O    5.969853   2.034139  -0.007483
H    1.154472   1.877821   0.014683
H    1.251452  -1.049365   1.663885
H    1.260958  -1.002122  -1.717421
H    4.961003  -3.885409   0.002305
H    7.826263  -2.264874   0.008031

