%chk=mol_5035.chk
# wB97XD/Def2SVP opt freq pop=full gfinput

C 4 H 7 N 1 O 2

1 2
C    2.54097915  -0.46777984  -1.64599931
N    2.32894921   0.09660996  -0.31878990
C    3.17424870   1.29911959  -0.15260994
C    2.38788915   2.55988908  -0.53843975
O    2.51363897   3.08477902   0.81287968
C    3.11646867   1.95104933   1.26228952
O    3.46003866   1.67519939   2.38873911
H    1.88513935  -1.33354950  -1.78259933
H    3.57459855  -0.80378968  -1.77741945
H    2.29837918   0.25580990  -2.43096900
H    2.52354908  -0.62159979   0.38270986
H    4.19599819   1.22897959  -0.53916979
H    1.33582950   2.43524909  -0.81537968
H    2.88328886   3.21054888  -1.26566947

