%chk=mol_4459.chk
# wB97XD/Def2SVP opt freq pop=full gfinput

C 5 H 13 N 1 O 1

1 2
C    1.39849949  -0.88914973   1.83659923
C    2.90017891  -0.74703968   1.64073932
C    3.22287893   0.16264994   0.45481986
N    4.67539787   0.28937989   0.30904987
C    5.00883818   1.19008958  -0.80797970
C    6.53302765   1.29316950  -0.94364965
O    7.09495735  -0.00912000  -1.07647955
H    1.18738949  -1.54289949   2.68870902
H    0.92593968  -1.32338953   0.94959962
H    0.93490964   0.08314997   2.03192925
H    3.33663893  -1.74047935   1.48212945
H    3.34146881  -0.34149987   2.55924916
H    2.77142882   1.14892960   0.61698973
H    2.79118896  -0.26347992  -0.45867983
H    5.06552792   0.66821975   1.17415953
H    4.58423805   2.18815923  -0.65172976
H    4.60085821   0.77261972  -1.73555934
H    6.97420740   1.76806939  -0.06069998
H    6.80466747   1.88138938  -1.82580936
H    6.51748753  -0.58625978  -0.53575981

