%chk=mol_3382.chk
# wB97XD/Def2SVP opt freq pop=full gfinput

C 6 H 8 O 1

1 2
C    1.42257941  -0.38916984  -0.83667970
O    2.48976898  -0.21359992   0.09238996
C    3.03899884   1.06353951   0.06656998
C    2.08757925   2.21852922   0.22475992
C    4.37553835   1.16826952   0.00000000
C    5.07853794   2.38589907   0.00000000
C    5.67361784   3.41660857   0.00000000
H    1.20213962  -1.45890951  -0.89706969
H    1.70544934  -0.04149998  -1.83613932
H    0.51830977   0.12211996  -0.49229980
H    1.35607958   1.99876928   1.00987959
H    1.55015934   2.40436912  -0.71041971
H    2.58956909   3.14739871   0.51039982
H    4.96493816   0.25775990  -0.06705997
H    6.20687771   4.33856869   0.00132000

