%chk=mol_4901.chk
# wB97XD/Def2SVP opt freq pop=full gfinput

C 4 H 6 N 2 O 1

1 2
C    1.87422931   3.07340884   0.94492966
C    3.00242877   2.66871905   0.35940987
O    3.37109876   1.32260942   0.33397987
C    4.70354795   1.04515958   0.21287991
N    5.64926815   1.92246926   0.15812995
N    6.89259768   1.30710948   0.04320998
C    7.83529711   2.18927932   0.04381999
H    1.59460938   4.12095833   0.94534969
H    1.21473956   2.36682916   1.43647945
H    3.68391848   3.33503890  -0.15300994
H    4.85296822  -0.04632998   0.17716993
H    8.88511658   1.86976933  -0.03926999
H    7.64598703   3.27356863   0.12567995

