%chk=mol_6173.chk
# wB97XD/Def2SVP opt pop=full gfinput

C 4 H 6 N 2 O 1

1 2
O    2.016678   0.006028   0.143014
C    4.319120   0.066481   0.022847
C    5.692781   2.532157   0.086738
N    8.126578   2.682806  -0.159361
N    8.668571   5.173787   0.111551
C    6.433667   6.760741  -0.226238
C    4.314358   4.956997   0.471600
H    5.539449  -1.610481  -0.140879
H   10.175892   5.740893  -0.953537
H    6.265897   7.345913  -2.205556
H    6.473597   8.442616   0.972907
H    2.681843   5.125088  -0.779342
H    3.751749   5.119362   2.453942

