%chk=mol_0332.chk
# wB97XD/Def2SVP opt pop=full gfinput

C 5 H 3 N 1

1 2
C    1.804140  -0.081202  -0.000000
C    4.330175  -0.038985  -0.000000
C    5.694085   2.271318  -0.000000
C    6.848103   4.225447  -0.000000
C    8.313831   6.724364  -0.000000
N    9.422893   8.615677  -0.000000
H    0.789603  -1.863912  -0.000000
H    0.687312   1.640415  -0.000000
H    5.392088  -1.796128  -0.000000

