%chk=mol_4498.chk
# wB97XD/Def2SVP opt freq pop=full gfinput

C 4 H 10 N 2 O 1

1 2
C    3.24723887  -1.13795960  -0.08826997
C    2.76888895   0.04877998   0.73853976
C    3.19726872   1.39074945   0.13260995
N    2.60251904   2.51348901   0.87571967
C    4.70732784   1.57485950   0.15175994
N    5.39673805   1.45133936   1.24317944
O    6.74507761   1.68464947   0.95307964
H    2.88143873  -2.07270908   0.34877986
H    4.34001827  -1.18932962  -0.12160996
H    2.87348890  -1.07622957  -1.11544955
H    3.14690876  -0.05638998   1.76279926
H    1.67442942   0.00390000   0.79748964
H    2.86581898   1.45336938  -0.90988970
H    3.03384900   2.54041910   1.80348933
H    1.61230946   2.33373928   1.03499961
H    5.18355799   1.83999932  -0.80797970
H    7.16482687   1.61691940   1.83120930

