%chk=mol_2405.chk
# wB97XD/Def2SVP opt pop=full gfinput

C 6 H 6 O 1

1 2
C    1.921133   0.090442   0.008995
C    4.724032  -0.082770   0.004554
C    6.131878  -2.184996   0.000794
C    8.762131  -1.292403   0.000926
O   10.631392  -2.626285   0.000265
C    8.751378   1.485438   0.002683
C    6.311459   2.129381   0.004516
H    1.049308  -1.786131  -0.004913
H    1.250602   1.111877  -1.660786
H    1.255232   1.085232   1.696313
H    5.575448  -4.137234  -0.000038
H   10.412561   2.650454   0.002589
H    5.600052   4.043409   0.005405

