%chk=mol_6154.chk
# wB97XD/Def2SVP opt freq pop=full gfinput

C 4 H 4 N 2 O 1

1 2
O    1.21373951   0.46087983  -0.85716969
C    2.09777927   0.23317991  -0.03927999
C    3.19884872   1.19541955   0.19373992
N    3.71539879   1.86253929  -1.01016963
C    2.97412896   2.67122889  -0.02835999
C    3.66384864   3.59259868   0.83008969
N    4.20105839   4.32468843   1.55361950
H    2.11959934  -0.69237977   0.55920976
H    3.95465851   0.88527972   0.90664971
H    3.10491872   1.65997934  -1.81021929
H    1.98953927   2.99492884  -0.35134986

