%chk=mol_7157.chk
# wB97XD/Def2SVP opt pop=full gfinput

C 6 H 13 N 1

1 2
C    3.325162  -1.209576  -1.947533
C    5.283939  -0.554483   0.051212
C    5.683654   2.250380   0.222912
C    7.919332   3.382667  -0.201218
C    8.512026   6.160470  -0.086398
C    6.288933   7.913398   0.497659
N   10.505970   6.521558   1.792481
H    3.042837  -3.257321  -2.027544
H    3.928136  -0.572285  -3.822160
H    1.499479  -0.330551  -1.524631
H    7.055179  -1.536706  -0.383444
H    4.644115  -1.248410   1.894715
H    4.037097   3.360179   0.745459
H    9.528585   2.202533  -0.711992
H    9.276514   6.701800  -1.935080
H    5.461479   7.521866   2.355846
H    4.798298   7.716092  -0.925985
H    6.892077   9.894984   0.484545
H    9.800404   6.087488   3.531917
H   10.976966   8.385886   1.868013

