%chk=mol_6872.chk
# wB97XD/Def2SVP opt pop=full gfinput

C 5 H 12 N 2

1 2
C    1.709616  -0.033354   0.369101
C    4.536798   0.011093  -0.047942
N    5.191512   0.084357  -2.745375
C    6.113472   2.032306   1.361945
C    7.836637  -0.051949   2.433759
N   10.267203  -0.009222   1.114277
C    6.119954  -2.082232   1.245821
H    1.250772  -0.096773   2.385269
H    0.848317  -1.691588  -0.519637
H    0.810220   1.654701  -0.420407
H    7.054404   0.376452  -3.117424
H    4.266605   1.469716  -3.713973
H    5.045059   3.005080   2.853619
H    7.011470   3.505291   0.211064
H    7.987475  -0.094052   4.493429
H   10.152856  -0.197231  -0.796652
H   11.454386  -1.417710   1.681233
H    7.021410  -3.482425   0.012567
H    5.061726  -3.138571   2.683619

