%chk=mol_4950.chk
# wB97XD/Def2SVP opt pop=full gfinput

C 5 H 6 N 2

1 2
C    4.882372   0.152047   1.287319
N    3.197889   0.808595  -0.834938
C    4.631341   2.849386  -1.310147
C    4.763848   5.251927  -2.123277
N    6.735891   6.288990  -0.690865
C    7.502818   4.583493   1.187920
C    6.247680   2.438937   0.611289
H    5.853710  -1.644402   0.972774
H    4.009659   0.163631   3.159036
H    3.196680  -0.565501  -2.172108
H    3.573548   6.436521  -3.290448
H    7.208228   8.140770  -0.707287
H    8.601069   5.214303   2.789614

