%chk=mol_6472.chk
# wB97XD/Def2SVP opt freq pop=full gfinput

C 5 H 8 N 2

1 2
C    1.03979957  -0.05787998   0.22153993
C    2.36445928   0.02062999   0.06733997
C    3.21183872   1.26230943  -0.05139998
C    4.50165844   0.76426971  -0.73267972
N    4.56500816  -0.63927972  -0.37182987
C    3.31458879  -1.11658955  -0.11221996
N    3.04818892  -2.37023902  -0.08780997
H    0.51694977  -1.00655961   0.26031989
H    0.43873984   0.84072965   0.31146988
H    3.44154859   1.64238942   0.95083964
H    2.73424888   2.05634928  -0.63239974
H    4.42623854   0.86615968  -1.82138932
H    5.38308764   1.31076956  -0.38563985
H    5.16369772  -1.26888955  -0.89245963
H    2.05892920  -2.52032900   0.11929996

