%chk=mol_5659.chk
# wB97XD/Def2SVP opt freq pop=full gfinput

C 4 H 6 N 2 O 1

1 2
N    1.02703953  -0.07955997  -0.36091986
C    2.34894919   0.06128998  -0.02938999
C    3.08747888   1.16947961   0.04630998
C    4.51201868   1.33136952   0.41008985
O    4.74516821   2.75416899   0.42240986
N    3.57068872   3.43399858  -0.01343000
C    2.66445899   2.53629899  -0.21446992
H    0.57381976  -0.89762968   0.04312998
H    0.45859984   0.76022977  -0.28229988
H    2.81731892  -0.89920962   0.18471994
H    5.17801809   0.88249969  -0.33168989
H    4.73298788   0.93720967   1.40548944
H    1.64333940   2.75257897  -0.55464977

