%chk=mol_2236.chk
# wB97XD/Def2SVP opt pop=full gfinput

C 6 H 8 O 1

1 2
C    1.954393   2.133671  -0.840626
O   -0.241337   2.919457   0.503480
C   -2.401615   1.652188  -0.082883
C   -2.755202  -0.840966  -0.306476
C   -0.969845  -2.997691   0.119620
C    1.785300  -2.458477   0.474907
C    3.046201  -0.300523   0.076213
H    3.365092   3.620356  -0.531410
H    1.605020   2.087637  -2.888050
H   -3.959883   2.977263  -0.213274
H   -4.677677  -1.446151  -0.727752
H   -1.155908  -4.317439  -1.470056
H   -1.633253  -4.011681   1.801797
H    2.885725  -4.088177   1.092394
H    5.080831  -0.295723   0.374336

