%chk=mol_4879.chk
# wB97XD/Def2SVP opt freq pop=full gfinput

C 4 H 9 N 1 O 2

1 2
C    1.23604953  -1.10557961   0.28133988
C    2.26778913  -0.30353987  -0.50249982
O    2.39076900  -0.86749965  -1.81333935
C    1.86927927   1.16581953  -0.61128974
C    3.02425885   2.02853918  -1.07001960
N    3.59142852   1.66442931  -2.25410914
O    3.39636874   3.02827883  -0.46646982
H    1.13942957  -0.73745978   1.30782950
H    1.51887941  -2.16386914   0.31441990
H    0.25180990  -1.05811965  -0.20001993
H    3.24482894  -0.39976984  -0.01646999
H    1.49411941  -1.05883968  -2.14519930
H    1.54969943   1.54486942   0.36712986
H    1.04452956   1.30479956  -1.31968951
H    3.46472883   0.71410972  -2.59548903
H    4.41477823   2.17083907  -2.55023909

