%chk=mol_3044.chk
# wB97XD/Def2SVP opt pop=full gfinput

C 6 H 10 O 1

1 2
C    2.897744  -0.855933   1.664414
C    4.447073   0.097585  -0.095866
C    5.676038   2.637094   0.039665
O    8.333843   2.246544  -0.072471
C    9.677212   4.575405  -0.036434
C   12.432640   3.955915   0.007653
C   14.124248   4.756743  -1.695330
H    2.090755  -2.728916   1.441218
H    2.425256   0.185250   3.366887
H    4.887172  -1.028332  -1.757729
H    5.184974   3.624362   1.792934
H    5.062973   3.781172  -1.573840
H    9.192611   5.643970   1.669875
H    9.175678   5.698261  -1.703021
H   13.059312   2.750213   1.549935
H   13.586602   5.944152  -3.279450
H   16.096573   4.211462  -1.544209

