%chk=mol_4445.chk
# wB97XD/Def2SVP opt pop=full gfinput

C 4 H 7 N 1 O 2

1 2
C    1.973838  -0.155581   0.869765
C    4.380139  -1.188524  -0.212670
C    4.807142  -3.678239  -0.475134
C    6.237684   0.755380  -1.078826
O    5.581779   2.908761  -1.651507
N    8.728191   0.051703  -1.001063
O   10.505365   2.005982  -1.414366
H    2.375008   1.047003   2.505248
H    0.700786  -1.662090   1.497816
H    0.961549   0.967880  -0.543164
H    3.409368  -5.053505   0.135002
H    6.500223  -4.436359  -1.348490
H    9.355411  -1.493243  -0.061832
H    9.408210   3.469159  -1.740060

