%chk=mol_6669.chk
# wB97XD/Def2SVP opt freq pop=full gfinput

C 4 H 6 N 2 S 1

1 2
N    2.53417897  -1.53072941   0.81285965
C    2.29008913  -0.60627979  -0.13587995
S    1.03319967  -0.79678971  -1.20104945
N    3.11736870   0.45616981  -0.21819992
C    4.40243816   0.60953981   0.42844984
C    4.93814802   1.94892931   0.17681994
C    5.37536812   3.04899883  -0.02835999
H    2.98965883  -1.26828945   1.67431939
H    1.85260928  -2.27695918   0.89478970
H    2.92927885   1.06610954  -1.00571966
H    5.07113838  -0.16253994   0.03332999
H    4.28524828   0.43828985   1.50291944
H    5.76056767   4.02588844  -0.20993993

