%chk=mol_2949.chk
# wB97XD/Def2SVP opt freq pop=full gfinput

C 6 H 10 O 1

1 2
C    0.98270965  -0.14378995   0.07232998
C    2.50139928  -0.01704999  -0.00101000
C    3.02738905   1.43281937   0.00000000
C    2.50322914   2.23793912  -1.19001961
O    2.57188916   2.08676910   1.18544960
C    4.47138834   1.43281937   0.00000000
C    5.66154814   1.43281937   0.00000000
H    0.70088977  -1.19945955   0.14435995
H    0.50364983   0.26360992  -0.82181972
H    0.58049983   0.37017986   0.94960964
H    2.85856891  -0.54951978  -0.89281964
H    2.91285872  -0.55161977   0.86708969
H    2.75823903   1.76465940  -2.14509916
H    2.92564893   3.25106883  -1.19429946
H    1.41643941   2.36815906  -1.14176953
H    3.03187895   1.66864932   1.93310928
H    6.72730732   1.43919945  -0.00153000

