%chk=mol_1549.chk
# wB97XD/Def2SVP opt pop=full gfinput

C 5 H 8 N 2

1 2
C    5.007812  -1.160556  -3.092518
C    5.042526  -0.532789  -0.293323
N    6.167291   1.936213   0.123626
C    8.699165   2.401672   0.445597
C    9.820150   4.666395   0.548928
C   12.467506   4.928859   0.908505
N   14.627803   5.158234   1.199825
H    4.114916  -2.999619  -3.405646
H    6.925676  -1.234558  -3.866002
H    3.949565   0.262313  -4.159590
H    6.071085  -1.992301   0.756061
H    3.104593  -0.510717   0.433484
H    5.058854   3.446142  -0.311238
H    9.820075   0.682966   0.642809
H    8.727757   6.386292   0.372257

