%chk=mol_6138.chk
# wB97XD/Def2SVP opt pop=full gfinput

C 4 H 6 N 2 O 1

1 2
O    1.994644   0.511776  -1.366536
C    4.025343   0.249690  -0.278319
C    5.940033   2.306448   0.013965
C    6.865999   2.509140   2.720582
N    7.208247   5.233483   2.965528
N    5.659409   6.528645   1.386435
C    4.941180   4.920847  -0.310822
H    4.603978  -1.626695   0.426379
H    7.480424   2.000842  -1.332200
H    8.637617   1.488707   3.022201
H    5.463500   1.828877   4.084397
H    7.102895   5.868450   4.786317
H    3.744303   5.425064  -1.933265

