%chk=mol_5405.chk
# wB97XD/Def2SVP opt freq pop=full gfinput

C 4 H 9 N 1 O 2

1 2
C    1.12601960  -0.34657985  -0.39772987
O    2.53157902  -0.16381994  -0.29149988
C    2.88215899   1.21977949  -0.28970987
C    4.39081812   1.36879945  -0.15206994
O    4.71930838   2.75861907  -0.15936993
N    6.10931778   2.88875890  -0.01918999
C    6.41005802   4.14178848  -0.03287999
H    0.91806966  -1.41985941  -0.40937984
H    0.75066972   0.09244996  -1.32717955
H    0.61670977   0.09863997   0.46243984
H    2.38192916   1.73223937   0.54098976
H    2.54604888   1.69118929  -1.22120953
H    4.89770842   0.86075968  -0.98123962
H    4.73076820   0.90875971   0.78360969
H    7.46061754   4.45588827   0.06590997
H    5.65618801   4.94015789  -0.14097995

