%chk=mol_0555.chk
# wB97XD/Def2SVP opt freq pop=full gfinput

C 5 H 5 N 1

1 2
N    1.01488960  -0.01958999   0.01901999
C    2.46999907   0.00000000   0.00000000
C    2.95201898   1.36116946   0.00000000
C    3.34929872   2.48306894   0.00000000
C    3.86150861   3.92724848  -0.00080000
C    4.26212835   5.05729818  -0.00098000
H    0.69357973  -0.98198962  -0.05846998
H    0.66628981   0.46715981  -0.80529970
H    2.82784891  -0.53262979  -0.88747966
H    2.84542894  -0.53851980   0.87609971
H    4.61683846   6.06190777   0.00046000

