%chk=mol_4450.chk
# wB97XD/Def2SVP opt freq pop=full gfinput

C 4 H 5 N 1 O 2

1 2
C    0.99999964   0.00000000   0.00000000
C    2.44399905   0.00000000   0.00000000
C    3.63415861   0.00000000   0.00000000
C    5.08143806  -0.00251000  -0.02083999
O    5.68375778  -1.06324959  -0.14557995
N    5.73529768   1.20296955   0.04235999
O    5.04105806   2.30387902   0.58812982
H    0.60606980   1.02090967   0.01187000
H    0.60592973  -0.52064979   0.87816972
H    0.60591978  -0.50011981  -0.89001966
H    6.72300768   1.13982952   0.26680991
H    4.74350834   2.77403903  -0.21411991

