%chk=mol_1568.chk
# wB97XD/Def2SVP opt freq pop=full gfinput

C 5 H 10 N 2

1 2
C    0.95649964  -0.12952995  -0.00796000
C    2.48796916  -0.06555998  -0.04237999
N    2.94438887  -0.81140971  -1.23084950
C    3.02115893   1.41382945  -0.01241999
N    2.54286909   2.18637919   1.13774955
C    4.49740791   1.44685948   0.01728999
C    5.69818783   1.47986948   0.04269999
H    0.56233978   0.26712990   0.93288970
H    0.60283977  -1.16437960  -0.08428997
H    0.51422983   0.43996984  -0.83286965
H    2.87248898  -0.59668976   0.83809966
H    2.61535907  -0.35189986  -2.07895923
H    2.54271913  -1.74756932  -1.23120952
H    2.67925882   1.92703938  -0.92004967
H    2.83710909   1.71741927   1.99267924
H    1.52760947   2.20965910   1.14611959
H    6.76262760   1.50893939   0.06302997

