%chk=mol_4098.chk
# wB97XD/Def2SVP opt freq pop=full gfinput

C 5 H 9 N 1 O 1

1 2
C    1.00794971   0.07021997   0.00710000
C    2.52315903   0.00881000   0.01004000
N    3.13748884   0.99751961   0.93786961
C    4.17272854  -0.01302000   1.26496959
C    3.17868876  -1.11449957   0.84968972
C    3.72311854  -2.34700894   0.10640996
O    4.52584839  -2.35634899  -0.82645971
H    0.59473979  -0.76491970  -0.56800979
H    0.65719974   0.99851966  -0.45608982
H    0.59116977   0.01676999   1.01883960
H    2.92464900   0.08769997  -1.00984967
H    2.54868913   1.24797952   1.73294938
H    5.06952810   0.06622998   0.63916981
H    4.48012829  -0.02542999   2.31475902
H    2.55058908  -1.42845953   1.69777930
H    3.33188868  -3.30819893   0.48049980

