%chk=mol_2999.chk
# wB97XD/Def2SVP opt freq pop=full gfinput

C 5 H 4 O 2

1 2
C    0.99999964   0.00000000   0.00000000
C    2.44399905   0.00000000   0.00000000
C    3.63415861   0.00000000   0.00000000
C    5.08022833  -0.00332000  -0.00089000
O    5.69240808  -1.03771961  -0.23656991
C    5.88488770   1.24167955   0.28254989
O    5.35597801   2.31532907   0.52739984
H    0.60599977   1.02087963   0.01194000
H    0.60592973  -0.52073979   0.87811965
H    0.60591978  -0.50006980  -0.89004964
H    6.97489738   1.08998954   0.24761991

