%chk=mol_2554.chk
# wB97XD/Def2SVP opt freq pop=full gfinput

C 7 H 12

1 2
C    0.71639973   1.01343966   0.22845992
C    2.18824935   0.93754965   0.47409981
C    3.11804891   1.32005954  -0.41625986
C    4.60600853   1.23931956  -0.17526995
C    5.25628757   0.31611988  -1.20778954
C    5.22579813   2.61357903  -0.24418990
C    5.88732767   3.19628882   0.76617974
H    0.27445990   0.01490999   0.30445987
H    0.48161983   1.41548944  -0.76240969
H    0.24560991   1.65643942   0.97836959
H    2.49403906   0.54596978   1.44154942
H    2.80130911   1.71206939  -1.38150954
H    4.79211855   0.80605972   0.81672966
H    5.11531782   0.68480974  -2.23098922
H    4.82861805  -0.69203973  -1.15431952
H    6.33447742   0.22856992  -1.02988958
H    5.12416792   3.15720892  -1.18163955
H    6.01817799   2.70106888   1.72290945
H    6.31036758   4.18922853   0.65221971

