%chk=mol_0295.chk
# wB97XD/Def2SVP opt freq pop=full gfinput

C 4 H 10 N 2

1 2
C    1.09301949  -0.12522995  -0.01889999
C    2.57539916   0.00571000  -0.06978998
N    3.30756879  -0.44625983  -1.24939954
C    3.22872877   1.00091958  -0.99623966
C    4.46646833   1.73609936  -0.58461982
N    5.31854820   1.87631929  -1.76057935
H    0.67986977   0.57626981   0.71343970
H    0.81246972  -1.13872957   0.28680989
H    0.62235981   0.08096997  -0.98683959
H    3.04160881  -0.20639992   0.88479972
H    2.67757916  -0.69879979  -2.01266932
H    2.61191893   1.57585943  -1.67748940
H    5.00990820   1.20014954   0.20209993
H    4.20191813   2.72572899  -0.19819993
H    5.48069811   0.93580967  -2.12719917
H    6.23043776   2.22121906  -1.46797955

