%chk=mol_0741.chk
# wB97XD/Def2SVP opt pop=full gfinput

C 5 H 10 O 1

1 2
C    2.390617  -2.645050   1.651772
C    4.148724  -2.247432  -0.600272
C    5.869263  -4.535985  -0.934224
O    2.573580  -1.952446  -2.780959
C    3.431157  -0.601934  -4.801284
C    5.644196   0.570962  -5.137504
H    1.127996  -1.018487   1.871471
H    3.457707  -2.889901   3.405910
H    1.180606  -4.302340   1.371185
H    5.255234  -0.538100  -0.225973
H    4.765001  -6.237249  -1.352118
H    6.997448  -4.879594   0.764035
H    7.163026  -4.266454  -2.527358
H    1.978638  -0.580354  -6.248644
H    7.138649   0.582319  -3.741733
H    6.007798   1.573669  -6.889923

