%chk=mol_5342.chk
# wB97XD/Def2SVP opt freq pop=full gfinput

C 5 H 7 N 1 O 1

1 2
C    1.35135949  -0.34457988  -0.08619997
O    2.72796893   0.00268000  -0.15840994
C    2.92652893   1.40022945   0.02630999
C    4.38640833   1.73464942  -0.04052998
C    5.38462782   0.85667974  -0.22958991
C    6.74694729   1.25648952  -0.28131989
N    7.85723734   1.58862948  -0.32258987
H    1.25946951  -1.42177939  -0.24866991
H    0.78271973   0.17582993  -0.86296970
H    0.94772965  -0.10445996   0.90207964
H    2.53446889   1.70266938   1.00378954
H    2.39660907   1.95296931  -0.75765967
H    4.62155819   2.79113913   0.07837997
H    5.18120813  -0.20235993  -0.35071987

