%chk=mol_3005.chk
# wB97XD/Def2SVP opt freq pop=full gfinput

C 5 H 8 O 2

1 2
C    4.44358826   0.28944987   2.12985921
C    3.21740890   0.40109983   1.22941959
C    3.13383865   1.71259940   0.43966985
C    2.92160892   2.92417884   1.31890953
O    2.45576906   2.87200904   2.45473909
C    4.31914806   1.85927927  -0.47929981
O    4.95432806   2.90088892  -0.61817980
H    4.42238855  -0.66206974   2.67135882
H    4.47562838   1.09389949   2.87077880
H    5.37049818   0.31966987   1.54887938
H    2.31815934   0.28384990   1.84638929
H    3.22885895  -0.44331986   0.52932978
H    2.25618911   1.66333938  -0.21818991
H    3.09833860   3.90359855   0.84074968
H    4.55741835   0.97596961  -1.09697962

