%chk=mol_6052.chk
# wB97XD/Def2SVP opt pop=full gfinput

C 4 H 6 N 2 O 1

1 2
O    1.664773   0.014664   0.193546
C    3.996846   0.006879   0.089686
C    5.444396   2.453091  -0.123626
N    8.073005   2.129457   0.566313
C    9.231388  -0.078537  -0.043823
N    8.194457  -2.228705  -0.376811
C    5.458833  -2.452827   0.066310
H    4.581452   3.850638   1.132475
H    5.312436   3.120202  -2.076904
H    9.136750   3.715787   0.402039
H   11.296575   0.125062  -0.260480
H    4.662597  -3.633792  -1.433527
H    5.155740  -3.395271   1.882583

