%chk=mol_6140.chk
# wB97XD/Def2SVP opt freq pop=full gfinput

C 4 H 6 N 2 O 1

1 2
O    3.07848883  -1.11529958  -0.36063984
C    2.34472919   0.04035998   0.03438999
C    3.28004885   1.22875953   0.05759998
C    2.68037891   2.37316918   0.79349971
N    2.43722916   3.39662886   0.04223999
N    2.86603904   3.08219886  -1.28385961
C    3.34867883   1.88253927  -1.27634954
H    2.45505905  -1.86402929  -0.37307984
H    1.92784929  -0.15242994   1.02877963
H    1.51486945   0.17678994  -0.66787970
H    4.28003836   0.99184966   0.42760983
H    2.47485900   2.32895899   1.87123930
H    3.77174854   1.37220943  -2.15155935

