%chk=mol_5861.chk
# wB97XD/Def2SVP opt pop=full gfinput

C 4 H 4 N 2 O 1

1 2
N    2.469229  -0.257059  -1.603962
C    4.798411  -0.240827  -0.528481
O    5.723754  -2.120159   0.441535
C    6.087847   2.226759  -0.641354
C    8.399795   2.446666   0.367079
C    9.737003   4.769782   0.317833
N   10.801996   6.682185   0.260726
H    1.645441   1.256687  -2.421930
H    1.501992  -1.907433  -1.577222
H    5.132458   3.801449  -1.537765
H    9.331789   0.851397   1.258425

