%chk=mol_0975.chk
# wB97XD/Def2SVP opt freq pop=full gfinput

C 4 H 5 N 1 O 1

1 2
C    0.99999964   0.00000000   0.00000000
C    2.44399905   0.00000000   0.00000000
C    3.63415861   0.00000000   0.00000000
C    5.06874800  -0.02636999  -0.00000000
N    5.58691788   1.15116954   0.00000000
O    6.98276758   1.03085959   0.00000000
H    0.60595977   1.02086961   0.01167999
H    0.60591978  -0.52052981   0.87824970
H    0.60591978  -0.50028980  -0.88992965
H    5.61582804  -0.98104960  -0.00000000
H    7.27144718   1.96279919   0.00000000

