%chk=mol_4714.chk
# wB97XD/Def2SVP opt freq pop=full gfinput

C 4 H 6 N 2 O 1

1 2
C    3.66835856  -1.97713923  -0.12075996
C    4.52532864  -0.95521969  -0.05358998
N    4.09729862   0.33585989  -0.18239994
C    5.00395823   1.24066949  -0.10045996
N    4.63211823   2.54468918  -0.22185992
C    5.47612762   3.61774874  -0.15732995
O    5.10810804   4.77890825  -0.27006990
H    4.00828838  -3.00089908  -0.01853999
H    2.60935903  -1.80319929  -0.27966991
H    5.58211803  -1.16522956   0.10687996
H    6.08240795   1.06704962   0.06230998
H    3.65047860   2.73200893  -0.37145984
H    6.53138781   3.34387875   0.00732000

