%chk=mol_3544.chk
# wB97XD/Def2SVP opt freq pop=full gfinput

C 5 H 8 O 2

1 2
O    0.94873959  -0.00801000   0.00807000
C    2.38825917   0.00872000   0.01661999
C    3.04046893   1.05691957   0.94620961
C    4.10883856   0.00279000   1.28482950
C    3.07686877  -1.08083963   0.88872969
C    3.59791851  -2.33703923   0.16511993
O    4.14960861  -2.37028909  -0.93523961
H    0.70767975  -0.60488975  -0.72218972
H    2.77771902   0.06706997  -1.00836957
H    2.41640925   1.34887958   1.79863930
H    3.41428876   1.95875931   0.45433980
H    4.99133778   0.04490998   0.63571978
H    4.43681812  -0.01399999   2.32757902
H    2.44902897  -1.37117946   1.74465930
H    3.42932868  -3.28034878   0.71148974

