%chk=mol_6170.chk
# wB97XD/Def2SVP opt freq pop=full gfinput

C 6 H 13 N 1

1 2
C    0.91971964   0.01315999   0.07804997
C    2.43362904   0.02949999   0.02285999
C    3.14826870   1.04781961   0.94514966
C    4.22660828  -0.03422999   1.22315955
C    5.48523808  -0.00700000   0.35918987
N    6.36058760   1.08743966   0.76955968
C    3.16634870  -1.08723962   0.80501968
H    0.52409977  -0.84040970  -0.48113984
H    0.50889981   0.92559963  -0.36542985
H    0.55302984  -0.05740998   1.10727954
H    2.78149891   0.10102996  -1.01704955
H    2.57633901   1.32554948   1.83926928
H    3.48766875   1.96364927   0.45333982
H    4.49098825  -0.11458996   2.28619909
H    5.24162769   0.10080996  -0.70343977
H    6.02978754  -0.94974965   0.47696984
H    5.90288782   1.97940934   0.58403975
H    7.20167732   1.07862961   0.19327992
H    3.52646875  -1.92502928   0.20075992
H    2.59993911  -1.48971951   1.65412927

