%chk=mol_5027.chk
# wB97XD/Def2SVP opt pop=full gfinput

C 4 H 6 N 2 O 1

1 2
C    5.839877  -2.324231   0.760615
N    4.854763  -0.067596  -0.417856
C    6.051035   2.186016  -0.267831
N    4.868993   4.406105  -0.494144
O    6.714253   6.238855  -0.248575
C    8.981755   5.108705   0.108678
C    8.669874   2.540623   0.111248
H    4.562101  -3.908653   0.393252
H    5.988920  -2.086730   2.810646
H    7.693850  -2.831906  -0.004120
H    2.936993   0.050021  -0.420842
H   10.577137   6.364314   0.313808
H   10.128573   1.135744   0.335880

