%chk=mol_3834.chk
# wB97XD/Def2SVP opt freq pop=full gfinput

C 5 H 9 N 1 O 1

1 2
C    0.60372978   0.35839987  -0.79505974
C    0.06748998   1.29956949   0.25075990
N    0.18333994  -0.13182995   0.51433980
C    1.31820953  -0.45809984   1.39008951
C    0.81570971  -0.68272972   2.82317901
O    1.41893947  -2.00725913   2.85428905
C    1.53841937  -1.97713923   1.40358949
H   -0.04298998   0.09831996  -1.62455940
H    1.66141939   0.38725984  -1.02638960
H   -0.94126964   1.67469943   0.12760995
H    0.75519973   1.97735929   0.74119973
H    2.23240924   0.14048994   1.30995941
H   -0.26635990  -0.74504977   2.98195910
H    1.25878954  -0.02310999   3.57494855
H    2.53063917  -2.30137920   1.07665968
H    0.77426970  -2.60903907   0.93801963

