%chk=mol_6925.chk
# wB97XD/Def2SVP opt freq pop=full gfinput

C 6 H 11 N 1

1 2
C    2.55427885  -0.52809983   1.47772944
C    2.59629893   0.01239000   0.05620998
C    3.12407875   1.40649951  -0.01131000
C    4.25634861   1.81977940  -0.58568972
C    4.41757870   3.28566861  -0.42488986
N    3.15509892   3.76237869   0.16879994
C    2.40210915   2.56353903   0.58822978
H    2.19803929  -1.56344938   1.47648954
H    1.87709928   0.05708998   2.10866928
H    3.54856849  -0.51321977   1.93695927
H    1.58956933  -0.01487999  -0.37658986
H    3.21697879  -0.65371978  -0.55516976
H    4.97703838   1.18788958  -1.08294964
H    5.25654840   3.51189876   0.24059992
H    4.59307861   3.77238870  -1.38943946
H    2.62061906   4.21837854  -0.56886977
H    1.36960948   2.62261915   0.22870992
H    2.39314914   2.49986911   1.68088925

