%chk=mol_5675.chk
# wB97XD/Def2SVP opt freq pop=full gfinput

C 4 H 10 N 2 O 1

1 2
N    2.35564899  -0.48494980  -1.44557941
C    2.29361916   0.11144996  -0.11006995
C    3.48383880   1.04190958   0.16764992
O    3.42876887   2.26777935  -0.62339979
C    3.02355886   3.02509880   0.54768980
C    3.38718867   1.85742939   1.47822940
N    4.73132801   2.07540917   2.04189920
H    1.57809937  -1.13004959  -1.57088935
H    3.21015882  -1.02855968  -1.54903936
H    2.28253913  -0.69318974   0.63344973
H    1.34897947   0.65805972  -0.01407999
H    4.44152832   0.52561980   0.01884999
H    3.59693885   3.95082855   0.65571976
H    1.95625925   3.26648879   0.50296980
H    2.62300897   1.56035936   2.19958925
H    5.40403795   2.42507911   1.35511959
H    5.15494823   1.23768950   2.43829918

