%chk=mol_2702.chk
# wB97XD/Def2SVP opt freq pop=full gfinput

C 6 H 10 O 1

1 2
C    2.25519896   2.65320897  -0.65525973
C    2.72784901   1.41210949  -0.47821981
C    3.47213864   0.96291965   0.74542969
C    4.86499834   0.51059979   0.34194985
C    5.90796757   1.60012937   0.05597998
O    6.84367752   0.99645960   0.98352963
C    5.79754782   0.13853996   1.50129950
H    1.71258926   2.91612887  -1.55896938
H    2.39045930   3.43040872   0.09013996
H    2.55132890   0.66815972  -1.25348949
H    2.92511892   0.12803996   1.19821966
H    3.51920867   1.76062942   1.49620950
H    4.85119820  -0.27313989  -0.42760983
H    5.65125799   2.61765909   0.36761987
H    6.29966736   1.61311948  -0.96481961
H    6.10814762  -0.90950966   1.52959943
H    5.48729801   0.45868981   2.50087905

