%chk=mol_4140.chk
# wB97XD/Def2SVP opt freq pop=full gfinput

C 4 H 6 N 2 O 1

1 2
C    0.99222958  -0.01169000  -0.00575000
C    2.47053909   0.07248997  -0.00029000
N    3.19991875   1.16894960   0.00501000
C    4.49317837   0.74596977   0.00840000
O    5.55667830   1.55770934   0.01413999
C    4.57433844  -0.62281978   0.00519000
N    3.27154875  -1.04299963  -0.00042000
H    0.54892981   0.98889965   0.00228000
H    0.63369977  -0.55033976   0.87679964
H    0.63958979  -0.53356975  -0.90064961
H    6.36966753   1.03238964   0.01558999
H    5.40135813  -1.31649947   0.00628000
H    2.94777894  -2.00065923  -0.00402000

