%chk=mol_3783.chk
# wB97XD/Def2SVP opt freq pop=full gfinput

C 5 H 8 O 2

1 2
O    0.55026984   0.86754972   0.08637997
C    1.80221927   1.12937963  -0.52895981
C    2.66388893   2.06803918   0.30701989
O    2.17165923   2.69249892   1.25090957
C    4.13713837   2.13904929  -0.07081997
C    4.71231794   3.50036883   0.18726993
C    5.29519796   4.26420879  -0.74462974
H    0.37696984   1.62568939   0.68209970
H    1.62369943   1.59039938  -1.50455952
H    2.32255912   0.17621994  -0.65971977
H    4.23997831   1.87369931  -1.12920952
H    4.67150784   1.38761950   0.52011979
H    4.63891840   3.87650871   1.20783961
H    5.39774799   3.94146848  -1.77623940
H    5.69001818   5.24351788  -0.48787981

