%chk=mol_5274.chk
# wB97XD/Def2SVP opt freq pop=full gfinput

C 5 H 11 N 1 O 1

1 2
C    2.31957912  -0.81581968  -0.91145962
O    1.95796919   0.43608984  -0.34466988
C    3.09708881   1.28679943  -0.10105997
C    3.38921857   2.36129904  -1.11706960
C    2.60011888   2.48702908  -2.37582898
C    2.76188898   2.73049903   0.19839993
N    3.54413867   3.49112868   1.17664957
H    1.40698957  -1.38706946  -1.10078955
H    2.94920897  -1.37792957  -0.21518992
H    2.84632897  -0.66885978  -1.85913932
H    3.93974853   0.85753965   0.43268982
H    4.42872858   2.61961913  -1.28123951
H    1.53339946   2.29242921  -2.22433925
H    2.97288895   1.78180933  -3.12529874
H    2.70246911   3.49850869  -2.78175879
H    1.70538938   2.99234891   0.18390994
H    4.51483822   3.18391895   1.20205963
H    3.17548871   3.33647895   2.11516929

