%chk=mol_4374.chk
# wB97XD/Def2SVP opt freq pop=full gfinput

C 5 H 11 N 1 O 1

1 2
C    3.10037875  -1.15894949   0.39542988
C    2.37321925   0.03196999   1.00712967
C    2.95579886   1.37520957   0.54614979
C    2.10445929   2.53609896   1.05718958
N    4.32536840   1.53245950   1.01967967
C    5.35393810   1.90317929   0.19334993
O    5.27585793   2.10791922  -1.00831962
H    2.62253904  -2.09318924   0.70701969
H    4.14684868  -1.19612956   0.71495974
H    3.07570887  -1.11373961  -0.69812977
H    2.41738892  -0.04722998   2.10039926
H    1.31581950  -0.02535999   0.72235972
H    2.95013905   1.40812945  -0.54964978
H    2.07887912   2.55811882   2.15258932
H    1.07480955   2.45667911   0.69318974
H    2.51033902   3.49551868   0.71776968
H    4.51184845   1.44023943   2.00909925
H    6.30406761   1.99609923   0.74515969

