%chk=mol_2706.chk
# wB97XD/Def2SVP opt freq pop=full gfinput

C 6 H 12 O 1

1 2
C    1.08306956   0.02378999   0.16967994
C    2.59506917  -0.02895999  -0.04472998
C    2.91784906  -0.75844973  -1.34840941
C    3.15939879   1.39013946  -0.09401997
C    3.18296885   2.18283916   1.22349954
O    4.57427835   2.53249907   1.02741957
C    4.68805838   1.54118943  -0.02171999
H    0.83799970   0.51852977   1.11532950
H    0.65819973  -0.98501962   0.19924992
H    0.58602977   0.58017981  -0.63231975
H    3.04571891  -0.58533978   0.78657967
H    2.49662900  -0.23430991  -2.21283913
H    2.51362920  -1.77587926  -1.33568954
H    3.99986863  -0.82942969  -1.50047934
H    2.72974896   1.97873926  -0.91651964
H    3.05105901   1.60436940   2.14309907
H    2.53916907   3.06617880   1.24573946
H    5.15734816   1.94986928  -0.92053962
H    5.24855804   0.66758972   0.32495987

