%chk=mol_2416.chk
# wB97XD/Def2SVP opt pop=full gfinput

C 5 H 6 O 2

1 2
C    1.892617  -0.075362  -0.013398
C    4.666962   0.216506   0.001795
C    6.256713   2.285019   0.008409
C    8.723203   1.285392   0.022752
O   10.927361   2.531780   0.033505
C    8.519490  -1.294519   0.024000
O    6.037637  -1.968868   0.011093
H    0.952705   1.766724   0.002494
H    1.266986  -1.132135   1.650543
H    1.282085  -1.096079  -1.704968
H    5.679232   4.241887   0.003345
H   10.626819   4.343819   0.030103
H    9.864654  -2.828807   0.032768

