%chk=mol_3368.chk
# wB97XD/Def2SVP opt freq pop=full gfinput

C 6 H 8 O 1

1 2
C    3.67458868  -0.98743957   0.24103992
O    2.68820906   0.03549999   0.31800988
C    3.11911869   1.32760954   0.20596991
C    4.36847830   1.79246926   0.05297998
C    4.69907808   3.25174880  -0.05920998
C    5.36169815   3.51117873  -1.34536946
C    5.90254784   3.72305870  -2.39536905
H    3.16746902  -1.95240927   0.33342987
H    4.39169836  -0.90225965   1.06405962
H    4.18620825  -0.96628964  -0.72690970
H    2.25674915   1.98529923   0.25760990
H    5.21490812   1.11434960   0.01059000
H    5.36329794   3.52974868   0.76664966
H    3.79972863   3.87192869   0.02807999
H    6.38056755   3.90633845  -3.33078885

