%chk=mol_1000.chk
# wB97XD/Def2SVP opt pop=full gfinput

C 4 H 11 N 1 O 1

1 2
C    2.113318  -0.536607   0.383917
C    4.967712  -0.270193   0.136684
C    5.797113   2.490470  -0.077233
O    5.089429   3.827395   2.162168
C    8.679153   2.714818  -0.413510
N    9.427446   5.391634  -0.371388
H    1.589241  -2.535842   0.460545
H    1.146988   0.318476  -1.232101
H    1.419827   0.367212   2.110427
H    5.603189  -1.323961  -1.529129
H    5.843827  -1.141300   1.801381
H    4.833882   3.395819  -1.672767
H    6.247435   5.271618   2.221467
H    9.285661   1.834584  -2.184183
H    9.647429   1.769086   1.152563
H    8.707442   6.276555  -1.928352
H   11.345689   5.502656  -0.547454

