%chk=mol_7118.chk
# wB97XD/Def2SVP opt freq pop=full gfinput

C 6 H 13 N 1

1 2
C    0.92644966  -0.13202995   0.16546993
C    2.43057919  -0.05534998   0.05353998
C    3.07109880  -1.42287946   0.04473998
C    3.12506890   1.10679960  -0.03281999
C    2.46851921   2.46781921  -0.11894996
C    4.63547802   1.18877947  -0.02537999
N    5.14101839   1.43258941  -1.36929941
H    0.46543983   0.80077970   0.49985981
H    0.64146978  -0.88985968   0.90509969
H    0.48951980  -0.41342986  -0.79846972
H    2.51106906  -2.09643912  -0.61427975
H    3.06672883  -1.84811938   1.05364966
H    4.09830856  -1.42196941  -0.32757989
H    1.41711950   2.42524910  -0.41190985
H    2.96321893   3.08963895  -0.87329972
H    2.54033923   2.98040891   0.84606969
H    5.10055780   0.28890988   0.38720986
H    4.95185804   2.00708938   0.63253981
H    4.84514809   0.66266978  -1.96798933
H    6.15844774   1.40343952  -1.35049951

