%chk=mol_1547.chk
# wB97XD/Def2SVP opt freq pop=full gfinput

C 5 H 10 N 2

1 2
C    3.49201870  -1.13558960   0.22610991
C    3.28330898  -0.04933998   1.27597952
N    3.19512868   1.30469942   0.70669973
C    2.80798888   2.26841927   1.74076939
C    4.42137814   1.74297929  -0.00002000
C    5.66312790   1.78179932   0.80297971
N    6.63773727   1.81182933   1.43700945
H    3.39851880  -2.12353921   0.68931973
H    4.48649836  -1.07971954  -0.22661991
H    2.74203897  -1.06683958  -0.56880981
H    4.07054853  -0.11750996   2.03670907
H    2.33737898  -0.27757990   1.78393936
H    1.83386934   2.00146914   2.16599917
H    2.69404912   3.27076888   1.31300950
H    3.53368855   2.32085919   2.55995893
H    4.24253845   2.74193907  -0.41875985
H    4.58064795   1.10448968  -0.87666965

