%chk=mol_5351.chk
# wB97XD/Def2SVP opt freq pop=full gfinput

C 5 H 13 N 1 O 1

1 2
C    1.69057930  -0.78439975  -0.00300000
O    2.99095893  -0.23774990   0.17460994
C    3.01094890   1.16562951  -0.10330996
C    4.43818855   1.66741931   0.09203997
C    4.57076836   3.18462873  -0.08396997
C    5.99784803   3.63979864   0.22035991
N    4.20492840   3.58943868  -1.44380951
H    1.73462927  -1.85436928   0.21634991
H    1.35718942  -0.65316975  -1.03668964
H    0.98115963  -0.31517988   0.68508971
H    2.32964921   1.67934930   0.58496976
H    2.67607903   1.33338952  -1.13291955
H    5.10551786   1.13619959  -0.59952980
H    4.77577829   1.38397944   1.09695959
H    3.89031839   3.68597865   0.61511976
H    6.72249746   3.16913891  -0.45312983
H    6.27427769   3.37965870   1.24733949
H    6.09496784   4.72610807   0.11694996
H    4.83967829   3.15185905  -2.11273932
H    4.34319830   4.59557819  -1.54955947

