%chk=mol_6135.chk
# wB97XD/Def2SVP opt freq pop=full gfinput

C 4 H 3 N 1 O 2

1 2
O    2.76740909  -1.10753953   0.14239995
C    2.21872902  -0.01543999   0.02110999
C    2.87656879   1.25789952   0.00552000
C    2.40852904   2.54652905  -0.12020996
N    3.45251870   3.43587875  -0.07441998
C    4.50521803   2.66377902   0.07578997
O    4.24009848   1.33080947   0.13317995
H    1.12162960   0.03104999  -0.08816997
H    1.38723946   2.88152885  -0.24011990
H    5.54323769   2.95518899   0.15826994

