%chk=mol_6311.chk
# wB97XD/Def2SVP opt freq pop=full gfinput

C 4 H 7 N 1 O 2

1 2
O    1.28434944  -0.00427000   0.83628970
C    2.06720924   0.14499995  -0.27247992
O    1.89221931  -0.54670984  -1.26889944
C    3.15729880   1.26070952  -0.07631997
C    2.80314898   2.69054890  -0.53340977
C    3.46375871   3.13901877   0.77755976
N    3.17056870   1.79786932   1.33812940
H    1.59599936   0.66281974   1.49285948
H    4.15127850   0.93264967  -0.40759984
H    1.72818935   2.90003896  -0.58798975
H    3.28407884   3.03561878  -1.45204949
H    4.53514814   3.35350871   0.68856972
H    2.97504902   3.96884847   1.29457951
H    3.93380857   1.42678940   1.90967929

