%chk=mol_3241.chk
# wB97XD/Def2SVP opt pop=full gfinput

C 5 H 10 O 2

1 2
C    3.454117  -0.857425  -2.158200
C    5.377027  -0.248480  -0.103368
O    7.588006  -1.713547  -0.522982
C    5.988221   2.530684  -0.038324
C    8.288924   3.589119  -0.229073
C    8.777230   6.367773  -0.130183
O   10.429379   6.869533   1.917751
H    1.671236   0.148665  -1.853576
H    3.062566  -2.890506  -2.199679
H    4.176824  -0.355136  -4.034546
H    4.607492  -0.801943   1.736035
H    8.207836  -1.290003  -2.199830
H    4.358030   3.760366   0.228033
H    9.958119   2.409817  -0.450284
H    7.045957   7.468311   0.133868
H    9.688191   6.996049  -1.877027
H    9.730899   6.014847   3.387561

