%chk=mol_0820.chk
# wB97XD/Def2SVP opt freq pop=full gfinput

C 5 H 10 O 1

1 2
C    3.42023873  -0.90404969   0.66211975
O    3.06783891   0.32683989   1.28243959
C    3.12471890   1.43935943   0.38473985
C    2.28549933   2.55770922   0.99468964
C    4.55448866   1.88436925   0.24150991
C    5.20621824   1.98579919  -0.92497969
H    3.30479860  -1.70177937   1.40018940
H    4.46187830  -0.89146972   0.32971987
H    2.75634885  -1.11419964  -0.18153994
H    2.68535900   1.16279960  -0.58204979
H    2.64723897   2.82875896   1.99304914
H    1.24845946   2.22686911   1.11892951
H    2.29064918   3.45304871   0.36527988
H    5.07851791   2.12554932   1.16385949
H    4.72798824   1.74861932  -1.87014937
H    6.24275780   2.30816913  -0.95309967

