%chk=mol_6043.chk
# wB97XD/Def2SVP opt pop=full gfinput

C 5 H 7 N 1 O 1

1 2
O    1.681233  -0.180185  -0.141144
C    4.000115  -0.072263  -0.088137
C    5.438197   2.383190   0.361335
N    7.976194   2.290254  -0.766378
C    9.438010   0.133263   0.132715
C    8.008508  -2.300137  -0.065082
C    5.487368  -2.444210  -0.241545
H    4.382955   3.915229  -0.543334
H    5.533175   2.744922   2.396721
H    8.913800   3.918876  -0.348957
H   10.051812   0.419878   2.090018
H   11.144131  -0.006841  -1.031753
H    9.114282  -4.029973  -0.078783
H    4.457297  -4.201693  -0.408710

