%chk=mol_5128.chk
# wB97XD/Def2SVP opt pop=full gfinput

C 5 H 9 N 1 O 1

1 2
C    1.681157  -0.973927  -1.524253
N    3.823332  -1.019545   0.200840
C    4.774204  -3.509259   0.871202
C    5.219575   1.076350   0.939137
O    7.024622   0.944315   2.396192
C    4.478632   3.567784  -0.148703
C    5.373776   5.716800   0.846994
H    0.527630   0.711387  -1.229758
H    0.484923  -2.628363  -1.199995
H    2.395152  -1.004484  -3.463433
H    3.221719  -4.644834   1.629265
H    6.276763  -3.423730   2.285983
H    5.518189  -4.408126  -0.835901
H    3.280602   3.636778  -1.799208
H    6.622243   5.703987   2.477525
H    4.883733   7.536001   0.041971

