%chk=mol_1179.chk
# wB97XD/Def2SVP opt pop=full gfinput

C 6 H 11 N 1

1 2
C    1.891975  -0.101327   0.005915
C    4.762110   0.000000   0.000000
C    5.672996   2.572238   0.000000
C    6.423746   4.692322   0.000000
C    7.334632   7.264561   0.000000
C    5.145403   9.161373  -0.030349
N    6.052925  11.774279   0.026664
H    1.241815  -2.065433   0.005820
H    1.105679   0.835523  -1.664962
H    1.112652   0.833067   1.681440
H    5.471645  -1.006865  -1.664565
H    5.478580  -1.009322   1.660087
H    8.550311   7.582564  -1.648238
H    8.509852   7.587401   1.676697
H    3.899204   8.845941   1.595080
H    4.001098   8.892200  -1.736375
H    6.993536  12.093397   1.677491
H    4.538669  12.966072   0.036510

