%chk=mol_2696.chk
# wB97XD/Def2SVP opt pop=full gfinput

C 6 H 12 O 1

1 2
C    2.093495   0.181584   0.313562
C    4.953898   0.106562  -0.077724
C    5.594232  -1.455240  -2.421382
C    5.964599   2.795340  -0.378607
C    5.959705   4.495073   1.980093
C    8.764966   4.835979   1.424173
O    8.716759   2.827899  -0.430272
H    1.605303   1.242098   2.021856
H    1.326720  -1.729685   0.514780
H    1.140204   1.095058  -1.280497
H    5.824363  -0.797408   1.572384
H    4.788207  -0.611062  -4.132037
H    4.862039  -3.381079  -2.246733
H    7.642241  -1.578998  -2.692879
H    5.221861   3.750502  -2.065036
H    5.563807   3.539192   3.768926
H    4.816137   6.207599   1.828650
H    9.289723   6.639742   0.561079
H   10.035542   4.404838   2.994555

