%chk=mol_3816.chk
# wB97XD/Def2SVP opt freq pop=full gfinput

C 5 H 9 N 1 O 1

1 2
C    1.87974930   0.16798992  -0.78737968
O    1.68757939  -0.06469998   0.61260980
C    0.49964979   0.06058998  -0.18448994
C   -0.34752989   1.24408948   0.13327995
C   -1.74735928   0.70807976  -0.14035994
N   -1.65141940  -0.71410972   0.20485993
C   -0.34244984  -1.17233968  -0.28655991
H    2.24533916   1.14260960  -1.08459961
H    2.25462937  -0.65512973  -1.38222957
H   -0.23982990   1.52972937   1.18570948
H   -0.12155996   2.10829926  -0.49831980
H   -2.50816894   1.22163963   0.45424983
H   -2.00166917   0.81701964  -1.20168948
H   -2.40294909  -1.24882960  -0.22449991
H   -0.42018983  -1.49361944  -1.33072948
H    0.02956999  -2.00101924   0.32226989

