%chk=mol_5780.chk
# wB97XD/Def2SVP opt freq pop=full gfinput

C 4 H 10 N 2 O 1

1 2
N    1.11153960   0.08062997  -0.02324999
C    2.57646894  -0.03768999  -0.13201995
C    2.92752886  -0.72790968  -1.46526945
O    2.25426912  -0.08416997  -2.54857898
C    3.24536896   1.31430948  -0.02515999
C    2.53947902   2.62715912  -0.28105989
N    2.86889887   2.21062922   1.08157957
H    0.93255961   0.65882975   0.80418968
H    0.72058970  -0.83590966   0.19326992
H    2.94830894  -0.65719974   0.69240975
H    2.60329914  -1.77437925  -1.45035946
H    4.00481844  -0.70413971  -1.66480935
H    1.40315950   0.20795994  -2.15831923
H    4.30906868   1.26377952  -0.24111992
H    1.48733950   2.63103914  -0.53637981
H    3.11046886   3.45200872  -0.69171971
H    3.68556857   2.72385883   1.42361939

