%chk=mol_6784.chk
# wB97XD/Def2SVP opt pop=full gfinput

C 5 H 12 N 2

1 2
C    1.570646   0.473036  -0.624895
C    4.319933   0.269588   0.129182
C    4.789813   0.475757   2.942190
N    4.006673  -1.849588   4.196987
C    5.984479  -1.495586  -1.392445
C    6.227517   1.306576  -1.753836
N    8.556982   2.566796  -0.987722
H    1.326871   0.433163  -2.681068
H    0.764375   2.248642   0.068427
H    0.470504  -1.094756   0.156280
H    3.750540   2.087184   3.724423
H    6.790031   0.780514   3.366812
H    2.110219  -2.088185   3.984431
H    4.312979  -1.677529   6.089227
H    5.132288  -2.585334  -2.904339
H    7.469369  -2.509292  -0.410808
H    5.464842   2.055776  -3.513228
H    9.546613   1.534099   0.300504
H    8.190866   4.272123  -0.173987

