%chk=mol_5386.chk
# wB97XD/Def2SVP opt pop=full gfinput

C 4 H 6 N 2 O 1

1 2
C    3.574020  -1.276623  -1.466144
O    4.547966   0.003061   0.700824
C    5.785397   2.207710   0.000000
C    4.500269   4.357028  -0.442423
N    1.922475   4.726470  -0.357045
C    8.442351   2.207710   0.000000
N   10.617445   2.207710   0.000000
H    2.911047  -3.136662  -0.855838
H    5.034571  -1.551333  -2.905889
H    1.961895  -0.256719  -2.264440
H    5.509591   6.087299  -0.924700
H    1.008433   3.357779   0.647496
H    1.414517   6.496236   0.206963

