%chk=mol_4144.chk
# wB97XD/Def2SVP opt freq pop=full gfinput

C 4 H 4 N 2 O 1

1 2
C    1.04184961   0.02222999   0.00554000
C    2.51742911  -0.07472997   0.00171000
N    3.25225878  -1.13381958   0.00171000
C    4.54560852  -0.62570971  -0.00144000
O    5.53809786  -1.33704948  -0.00269000
N    4.61085844   0.76262975  -0.00297000
C    3.38303876   1.12867963  -0.00102000
H    0.59884977  -0.97696960  -0.00165000
H    0.70892972   0.56899983  -0.88044971
H    0.71294975   0.55442983   0.90183967
H    2.94443893   2.13457918  -0.00119000

