%chk=mol_2601.chk
# wB97XD/Def2SVP opt pop=full gfinput

C 6 H 8 O 1

1 2
C    3.087321  -1.303439  -1.970210
C    3.846330   0.344119  -0.202881
C    5.838933   2.362517  -0.428892
C    6.815694   3.046484  -3.082181
C    7.044729   5.830863  -2.876258
C    5.884362   6.561583  -0.777282
O    4.838908   4.669287   0.676257
H    1.616547  -2.671619  -1.544832
H    3.883671  -1.355992  -3.857328
H    2.952962   0.240543   1.648748
H    7.442535   1.795693   0.763978
H    5.494152   2.580553  -4.602957
H    8.627507   2.128871  -3.469840
H    7.901417   7.060017  -4.258876
H    5.575108   8.449438  -0.081485

