%chk=mol_7128.chk
# wB97XD/Def2SVP opt freq pop=full gfinput

C 6 H 13 N 1

1 2
C    1.11772954  -0.33714986   0.48613983
C    2.41501904   0.06499998  -0.23196991
C    2.92978907  -1.14218962  -1.02610958
C    2.30992913   1.31413960  -1.11613953
C    1.15457952   1.95670938  -1.37511945
C    3.59690881   1.83502924  -1.71897936
N    4.55615854   2.19693923  -0.68595976
H    0.73512971   0.48266980   1.10339952
H    1.29562950  -1.18868959   1.15253961
H    0.33754987  -0.63286978  -0.22410992
H    3.14301872   0.27969989   0.56146979
H    2.28159928  -1.36255956  -1.88120925
H    2.97013879  -2.03594923  -0.39360985
H    3.94389844  -0.97364962  -1.40200949
H    0.20036992   1.63377941  -0.97409964
H    1.12638962   2.84121895  -2.00499916
H    3.41113853   2.71608901  -2.34491920
H    4.03428841   1.07917953  -2.37909889
H    4.15430832   2.94232893  -0.11920995
H    5.38367844   2.59226894  -1.12792957

