%chk=mol_6835.chk
# wB97XD/Def2SVP opt freq pop=full gfinput

C 5 H 8 N 2

1 2
C    1.04406965  -0.00964000  -0.04646998
C    2.53385901  -0.00290000  -0.03906999
N    3.27028894  -0.61214978  -1.13991964
C    3.31152892   0.84778970  -1.02073967
C    4.57138824   1.52434945  -0.56784981
C    5.24003792   1.95879924  -1.79970932
N    5.76378822   2.33371925  -2.76535892
H    0.66378975   0.78337967   0.60501975
H    0.66850972  -0.96681964   0.32888988
H    0.63187975   0.14915995  -1.04865956
H    2.94223881  -0.17236993   0.95082963
H    2.64819884  -0.89802969  -1.90006924
H    2.74029899   1.42367947  -1.74312937
H    5.21518803   0.85386968   0.01137000
H    4.32448864   2.38722920   0.05896998

