%chk=mol_2956.chk
# wB97XD/Def2SVP opt pop=full gfinput

C 6 H 10 O 1

1 2
C    2.035632  -0.568751   0.144054
C    4.882410  -0.931767   0.272536
C    6.289462   1.499706  -0.395765
C    9.138262   1.173596  -0.270306
O   10.157429  -0.834257   0.309632
C   10.800258   3.367586  -0.870238
C    9.992494   5.671049  -1.536876
H    1.066202  -2.328180   0.636592
H    1.443883  -0.021411  -1.761244
H    1.414271   0.897847   1.463990
H    5.437441  -2.448858  -1.022909
H    5.406431  -1.549821   2.180158
H    5.743709   2.994555   0.929726
H    5.780937   2.078869  -2.318033
H   12.809244   2.968193  -0.727904
H    8.011154   6.161603  -1.705194
H   11.351792   7.155958  -1.939653

