%chk=mol_5561.chk
# wB97XD/Def2SVP opt freq pop=full gfinput

C 5 H 7 N 1 O 1

1 2
N    0.93644965  -0.03276999   0.22081992
C    2.38030910  -0.00862000  -0.04923998
C    3.06890893   1.02599955   0.85230970
O    3.68616867  -0.01190000   1.65935934
C    3.11099887  -1.04412961   0.81799972
C    2.65731883   0.01709999  -1.46049941
C    2.89671898   0.03677998  -2.63791895
H    0.70254970  -0.12849995   1.20843947
H    0.44927981  -0.78491974  -0.26329988
H    2.42227912   1.66319942   1.46524942
H    3.82869864   1.65289938   0.37329984
H    3.89445853  -1.62413943   0.31836990
H    2.49038911  -1.72792935   1.40716946
H    3.11134887   0.05888998  -3.68128848

