%chk=mol_7135.chk
# wB97XD/Def2SVP opt pop=full gfinput

C 6 H 7 N 1

1 2
C    1.875818  -0.059432   0.021297
C    4.762110   0.000000   0.000000
C    5.781504  -1.442522  -2.283545
C    5.672996   2.572238   0.000000
C    6.423746   4.692322   0.000000
C    7.392854   7.430989  -0.001209
N    8.125086   9.500465  -0.002230
H    1.126163   0.922848   1.683519
H    1.179813  -2.008099   0.070808
H    1.083947   0.860222  -1.657687
H    5.433643  -0.956825   1.712092
H    5.161239  -0.584077  -4.064007
H    5.133574  -3.408216  -2.261927
H    7.852643  -1.458774  -2.286228

