%chk=mol_6098.chk
# wB97XD/Def2SVP opt freq pop=full gfinput

C 5 H 11 N 1 O 1

1 2
O    2.12853909  -0.26209989  -1.39792943
C    2.28139901   0.10683995  -0.02983999
C    3.02522874   1.44025946   0.07526997
C    2.23469925   2.61105895  -0.49661982
C    2.80611897   3.83082867   0.21401991
C    3.62027860   3.27679873   1.37499952
N    3.25732875   1.86253929   1.46283937
H    1.61923933  -1.09037960  -1.40815949
H    2.84592891  -0.68560970   0.47322980
H    1.28735948   0.16765992   0.42691982
H    3.98331857   1.36418951  -0.45688984
H    1.16535950   2.52161908  -0.26697990
H    2.33811903   2.68949890  -1.58374941
H    3.44335890   4.41406822  -0.45943984
H    1.99781930   4.48252821   0.56254977
H    4.69202805   3.37976885   1.16740954
H    3.40434861   3.79962850   2.31143904
H    4.01746845   1.32615948   1.87823939

