%chk=mol_0895.chk
# wB97XD/Def2SVP opt pop=full gfinput

C 5 H 8 O 1

1 2
O    3.418949  -1.150068  -2.128606
C    5.123917  -0.671930  -0.117749
C    5.409285   2.120386   0.117919
C    7.634380   3.334573   0.042576
C    7.845860   6.043382   0.272291
C   10.059579   7.262936   0.199744
H    3.324274  -2.973314  -2.318713
H    6.920063  -1.612862  -0.526119
H    4.332197  -1.454749   1.624522
H    3.661477   3.173719   0.356667
H    9.373004   2.267256  -0.211290
H    6.114322   7.127480   0.508072
H   11.843349   6.279276  -0.038437
H   10.126475   9.305730   0.374827

