%chk=mol_4072.chk
# wB97XD/Def2SVP opt freq pop=full gfinput

C 6 H 9 N 1

1 2
C    1.91515934  -0.00036000  -0.45900983
C    0.87486970   0.77066970   0.29723990
C    0.87522966  -0.77045971   0.29717991
C   -0.58323979  -0.99888963  -0.11876996
C   -1.03176963  -0.00001000  -1.26643956
C   -0.58300978   0.99885958  -0.11905996
N   -1.35893953   0.00012000   0.76471972
H    1.87729931  -0.00027000  -1.54195940
H    2.92667913  -0.00017000  -0.06828997
H    1.12031960   1.28400958   1.21680963
H    1.12014961  -1.28411949   1.21719956
H   -0.96780962  -2.01903915  -0.13536996
H   -2.09672928  -0.00006000  -1.52700937
H   -0.43368983  -0.00020000  -2.18051910
H   -0.96755964   2.01904917  -0.13572995
H   -1.07389963   0.00021000   1.74203944

