%chk=mol_4307.chk
# wB97XD/Def2SVP opt freq pop=full gfinput

C 4 H 5 N 1 O 2

1 2
C    1.70788944  -0.44447985  -1.21638954
C    2.16381931   0.20817992  -0.13758995
C    3.23448896   1.26413953  -0.10051996
O    3.66886854   1.62946939  -1.39538944
C    3.42156887   2.94917893  -1.41138947
N    2.90088892   3.49102879  -0.37152988
O    2.71931911   2.43341899   0.54321980
H    0.92311966  -1.18948960  -1.12405956
H    2.09795928  -0.25188991  -2.21153927
H    1.72939932  -0.03037999   0.83110964
H    4.09243822   0.90045971   0.47560984
H    3.70240855   3.45082855  -2.34539914

