%chk=mol_4939.chk
# wB97XD/Def2SVP opt freq pop=full gfinput

C 7 H 14

1 2
C    2.72085905  -1.40444946  -0.55971980
C    2.02156925  -0.10749996  -0.15074995
C    0.96923965  -0.37559983   0.92569965
C    3.02061892   0.96846968   0.28260991
C    3.87680864   0.65336972   1.48698938
C    3.65193868   1.80947936  -0.80902970
C    2.61094904   2.41469908   0.08768997
H    3.48733854  -1.21348953  -1.31780946
H    2.00028920  -2.11427927  -0.97921968
H    3.20657873  -1.88999927   0.29288989
H    1.48457944   0.25755990  -1.03685963
H    1.40870941  -0.83120972   1.81889939
H    0.19952992  -1.05779958   0.54985976
H    0.47673982   0.55321974   1.23146951
H    4.55144835   1.48189950   1.72906935
H    4.49866819  -0.22792992   1.30539954
H    3.25884867   0.47019982   2.37067914
H    3.38087893   1.61601937  -1.84115922
H    4.67861843   2.13651943  -0.68716973
H    2.93397903   3.15080881   0.81554973
H    1.63737941   2.62948918  -0.33945987

