%chk=mol_1859.chk
# wB97XD/Def2SVP opt freq pop=full gfinput

C 5 H 10 N 2

1 2
C    2.26916909  -1.18522954  -0.14724994
N    3.49666858  -0.52645981   0.28322989
N    3.60926867   0.77654970  -0.07222997
C    4.75729799   1.29494953   0.22702990
C    5.06140852   2.70849895  -0.07677997
C    6.25597763   3.22454882   0.23911990
C    6.63968754   4.64169836  -0.03783999
H    2.28883910  -2.23761916   0.15155995
H    2.16947913  -1.14677966  -1.23696947
H    1.39105952  -0.71376973   0.30575988
H    3.59116864  -0.64367974   1.29479957
H    5.56110811   0.71300972   0.71551973
H    4.27698851   3.28028870  -0.55994982
H    7.01410770   2.61062908   0.72084975
H    5.83403826   5.20151806  -0.52420980
H    7.51721716   4.66950798  -0.69118977
H    6.89127731   5.14961815   0.89833969

