%chk=mol_6038.chk
# wB97XD/Def2SVP opt pop=full gfinput

C 5 H 9 N 1 O 1

1 2
O    2.166061   0.385580   0.557961
C    4.741115  -0.085529  -0.054065
C    5.131230  -2.830942  -0.967710
N    5.231235  -2.776518  -3.766243
C    5.905470  -0.182037  -4.473794
C    3.933843   1.845979  -4.562082
C    5.552526   1.525841  -2.237984
H    1.892561   2.191024   0.376528
H    5.885628   0.293815   1.629454
H    3.649118  -4.112668  -0.310482
H    6.964453  -3.515174  -0.279623
H    6.501206  -4.077916  -4.398281
H    7.575534   0.058222  -5.638603
H    4.287014   3.465663  -5.763041
H    1.968036   1.271729  -4.496584
H    7.008881   2.887483  -1.804348

