%chk=mol_2585.chk
# wB97XD/Def2SVP opt pop=full gfinput

C 6 H 10 O 1

1 2
C    3.221454  -0.296479   2.475617
C    4.399377   0.317039  -0.072017
C    6.322873   2.386554   0.146567
C    6.696774   4.218852  -1.996363
C    5.485894   5.106493   0.431368
C    6.886616   6.835857   2.131025
O    6.068175   8.944565   2.611923
H    1.894753  -1.871226   2.295186
H    2.189588   1.333391   3.222777
H    4.668096  -0.817458   3.858367
H    2.901542   0.833558  -1.408129
H    5.324341  -1.376911  -0.826604
H    7.994354   1.762113   1.156531
H    5.496268   4.071169  -3.650951
H    8.606058   4.830764  -2.420059
H    3.468838   5.479506   0.369782
H    8.683386   6.140419   2.927413

