%chk=mol_0611.chk
# wB97XD/Def2SVP opt pop=full gfinput

C 5 H 8 O 1

1 2
C    1.797508  -0.005046   0.169301
C    4.649293   0.049870  -0.051835
C    6.043911   2.023991   1.627243
C    7.968087  -0.004044   2.491377
C    6.092402  -1.987387   1.468979
O    5.841597  -4.243909   1.768633
H    1.020150  -1.640547  -0.832670
H    0.970866   1.698864  -0.664465
H    1.182969  -0.114990   2.142874
H    5.270314   0.093485  -2.030265
H    4.904992   2.779768   3.185473
H    6.866603   3.615651   0.594867
H    9.763157   0.009619   1.467259
H    8.302512  -0.095223   4.524458

