%chk=mol_2736.chk
# wB97XD/Def2SVP opt freq pop=full gfinput

C 6 H 10 O 1

1 2
C    2.40464902  -0.93579960   0.96096969
C    2.86693883  -0.18131994  -0.27600989
C    3.10691881   1.26962948   0.02409999
C    4.29642820   1.87753928  -0.11022995
C    4.57296801   3.29048872   0.16295995
C    4.81332827   3.71757865   1.58952940
O    5.86206818   3.73556852   0.61539978
H    2.22165918  -1.98663926   0.71579975
H    1.47499955  -0.51496983   1.35794950
H    3.16112876  -0.89904964   1.75174940
H    2.10040927  -0.25663990  -1.05627966
H    3.77250862  -0.65692973  -0.67109972
H    2.24866915   1.84643936   0.36068988
H    5.15043783   1.29596961  -0.45420983
H    4.03368855   3.97858858  -0.48066983
H    4.86927843   2.96509910   2.36605906
H    4.41309834   4.67018843   1.91201937

