%chk=mol_3963.chk
# wB97XD/Def2SVP opt freq pop=full gfinput

C 4 H 5 N 1 O 2

1 2
C    1.00826967  -0.00523000  -0.00616000
C    2.49196911   0.06254998  -0.00083000
C    3.25024867   1.15774953   0.00235000
C    4.61429834   0.64145976   0.00921000
O    5.62106800   1.32383955   0.02375999
N    4.52391863  -0.72078973  -0.00187000
O    3.17862868  -1.14395952   0.00082000
H    0.55919975   0.99320966  -0.00248000
H    0.64884979  -0.54149979   0.87758964
H    0.65505975  -0.53226978  -0.89794970
H    2.97959900   2.19548917   0.00306000
H    5.28151798  -1.38506949   0.02249999

