%chk=mol_2782.chk
# wB97XD/Def2SVP opt freq pop=full gfinput

C 6 H 10 O 1

1 2
C    1.18227959   0.04312998  -0.08808997
C    2.68491888  -0.05613998   0.04454998
C    3.27539873  -1.38648951   0.11593995
C    2.61190891  -2.55008888   0.07231997
C    3.41207886   1.07951951   0.09398997
C    4.89041805   1.26196957   0.21282992
O    5.15240812   1.96346927   1.41912949
H    0.83671969   1.08257961  -0.12878996
H    0.68514973  -0.42572984   0.76837975
H    0.84110969  -0.44387984  -1.00835967
H    4.35524797  -1.45502949   0.21416993
H    1.53425944  -2.61665893  -0.02435999
H    3.15370870  -3.48957849   0.13353994
H    2.88130879   2.03012919   0.03278999
H    5.25677776   1.86821926  -0.62127978
H    5.46335793   0.33348989   0.22480991
H    4.73873806   1.44832945   2.13325930

