%chk=mol_4062.chk
# wB97XD/Def2SVP opt pop=full gfinput

C 5 H 6 N 2

1 2
C   -2.808889   1.458169   1.026953
C   -2.110087  -0.827832  -0.519807
C   -0.364509  -2.734698   0.493899
N    2.019097  -2.307564   0.827454
N    3.104215   0.051590   0.262918
C    1.767839   1.899685  -0.615106
C   -0.954198   1.684729  -1.121307
H   -4.677261   2.256314   0.770139
H   -2.097804   1.590299   2.945875
H   -3.514720  -1.547724  -1.825154
H   -1.145363  -4.603883   0.973379
H    2.685981   3.723951  -1.019639
H   -1.594589   2.625472  -2.824101

