%chk=mol_5516.chk
# wB97XD/Def2SVP opt pop=full gfinput

C 4 H 6 N 2 O 1

1 2
N    1.963520  -0.105409  -0.038021
C    4.488175   0.089365  -0.012000
C    6.040812   2.171768   0.001058
C    8.566676   1.280289   0.024699
C    8.488631  -1.320257   0.024094
O   10.366924  -2.982517   0.039987
N    5.988372  -2.020061   0.001606
H    0.846408   1.458396   0.006047
H    0.999967  -1.762189   0.026702
H    5.436496   4.123723  -0.006595
H   10.270000   2.409571   0.038758
H    9.688456  -4.686918   0.029083
H    5.327422  -3.804321  -0.008315

