%chk=mol_6982.chk
# wB97XD/Def2SVP opt freq pop=full gfinput

C 6 H 13 N 1

1 2
C    2.35576916  -0.44461983  -1.57156944
C    2.43575907   0.04726999  -0.13496993
C    3.31382895   1.28809953  -0.02963999
N    2.66458917   2.52155924  -0.55556977
C    3.28418875   3.28539872   0.55337983
C    3.36022878   1.97496927   1.36232948
C    4.60518837   1.75541937   2.19616914
H    1.75225925  -1.35614944  -1.62811935
H    3.35252857  -0.66987973  -1.96555924
H    1.89896929   0.30617988  -2.22433925
H    2.86034894  -0.74996972   0.48678979
H    1.42484939   0.24078992   0.24353991
H    4.31122828   1.12318957  -0.46246985
H    1.64566946   2.50115895  -0.50145984
H    4.25207853   3.72568846   0.28459990
H    2.65062904   4.06856871   0.97991961
H    2.45253897   1.80445933   1.95923936
H    5.51769781   1.93216920   1.61728930
H    4.63836861   0.72862971   2.57381892
H    4.61503839   2.43120909   3.05706882

