%chk=mol_5272.chk
# wB97XD/Def2SVP opt freq pop=full gfinput

C 5 H 11 N 1 O 1

1 2
C    2.04848933  -0.48715982  -1.37144947
O    2.24532914   0.05724998  -0.07454997
C    3.06476879   1.24456954  -0.01119000
C    2.41675925   2.57254910  -0.48799983
C    3.17494869   3.27622867   0.66002977
C    3.15612888   1.91892934   1.39215946
N    4.46173859   1.67012942   2.00219917
H    1.42871940  -1.38288951  -1.28227949
H    3.00982904  -0.76354975  -1.81344926
H    1.53587949   0.23600991  -2.01163912
H    4.04116821   1.06723964  -0.48500982
H    1.32574952   2.59998894  -0.38724986
H    2.68980908   2.89732885  -1.49535942
H    4.16188860   3.64764881   0.35699987
H    2.63046908   4.08712864   1.15172958
H    2.29489899   1.75731933   2.04821920
H    5.25971794   1.80169928   1.38449955
H    4.54658842   0.71749973   2.36236906

