%chk=mol_5531.chk
# wB97XD/Def2SVP opt freq pop=full gfinput

C 4 H 5 N 1 O 2

1 2
N    0.97826964  -0.07167997  -0.09877996
C    2.43198919  -0.07626997   0.04838998
C    3.04364896  -1.25113952  -0.59485978
C    3.90566850  -0.83051974  -1.50962949
O    4.02069855   0.53494978  -1.66888928
C    3.09419870   1.03642964  -0.77830970
O    2.84946895   2.23254919  -0.65662980
H    0.64550972   0.88116968   0.06514998
H    0.56551975  -0.64438975   0.63417977
H    2.74039912   0.01963999   1.09395957
H    2.83149886  -2.28112912  -0.35567987
H    4.53099823  -1.41431952  -2.16516924

