%chk=mol_6916.chk
# wB97XD/Def2SVP opt freq pop=full gfinput

C 6 H 13 N 1

1 2
C    2.38063931  -1.31177950  -0.54939979
C    1.93152928   0.00904000   0.05919998
C    3.09800887   0.91979969   0.41360986
C    3.85637856   0.51876980   1.65490937
C    3.85693860   1.59587944  -0.71902972
N    2.89214897   2.34175897   0.07477997
C    3.48870873   3.32474875   0.96925962
H    1.50993943  -1.91682923  -0.82014972
H    2.98666883  -1.89167929   0.15206994
H    2.97604895  -1.14869964  -1.45287955
H    1.33789945  -0.18615992   0.96045965
H    1.25932956   0.50620979  -0.65247977
H    4.79988813   1.06103957   1.77283931
H    4.11289835  -0.54539979   1.62866938
H    3.24495888   0.69467974   2.54672885
H    3.56011868   1.38891947  -1.74054933
H    4.91287804   1.80316925  -0.59633976
H    2.96944880   3.32486892   1.93346930
H    3.36214876   4.32150841   0.53362978
H    4.56087828   3.19338894   1.15271962

