%chk=mol_2691.chk
# wB97XD/Def2SVP opt freq pop=full gfinput

C 6 H 12 O 1

1 2
C    1.12000954  -0.16957994  -0.08000997
C    2.63502908  -0.08387996  -0.16555993
C    3.13903880   1.31278944   0.19514993
C    4.65901804   1.35991955   0.12748995
C    5.31196833   1.39498949  -1.26131952
C    6.00021791   2.65837908  -0.75225973
O    5.14275789   2.70296884   0.41252986
H    0.78226966  -1.17947960  -0.33371988
H    0.64733976   0.53140980  -0.77573973
H    0.76988971   0.06112998   0.93141967
H    2.95506883  -0.34935984  -1.17957950
H    3.07770896  -0.82492971   0.50999981
H    2.81099892   1.56819940   1.21048963
H    2.70021915   2.05702925  -0.48092982
H    5.13067818   0.64702976   0.81670970
H    4.63019848   1.56364942  -2.09928918
H    5.97885752   0.55928975  -1.48508942
H    7.05004692   2.54081917  -0.46707982
H    5.87934780   3.54355860  -1.38216949

