%chk=mol_5180.chk
# wB97XD/Def2SVP opt freq pop=full gfinput

C 4 H 8 N 2 O 1

1 2
C    1.07055962  -0.52251983   0.46064982
N    1.81394923  -1.39954937  -0.45618981
C    2.47331905  -2.44707894   0.34154987
N    1.07168961  -1.85660923  -1.50255954
C    1.73791933  -1.87240922  -2.60993886
C    1.06011963  -2.35238934  -3.85201859
O    1.67859936  -2.39731908  -4.90342808
H    0.63024974   0.31260988  -0.09561996
H    1.73491931  -0.08780997   1.21523964
H    0.26020989  -1.05974972   0.96626961
H    3.13394880  -2.00777936   1.09684956
H    3.09939885  -3.07532883  -0.30172989
H    1.74213934  -3.09330869   0.84005964
H    2.78742909  -1.55664945  -2.73279905
H    0.00621000  -2.64740920  -3.72880864

