%chk=mol_4095.chk
# wB97XD/Def2SVP opt freq pop=full gfinput

C 5 H 11 N 1 O 1

1 2
C    0.92313969   0.03313999  -0.14972995
C    2.42141891   0.02035999   0.03752999
N    2.86158895  -0.08493997   1.43749940
C    3.26158881  -0.66129977  -1.01892960
C    3.23484874   0.84321964  -0.94068962
C    4.44434834   1.61265945  -0.53458983
O    5.24765825   1.84459937  -1.68631935
H    0.64131975   0.10372996  -1.20622957
H    0.48151982   0.88822967   0.37328985
H    0.48003981  -0.88435972   0.25252992
H    3.83178854  -0.38712987   1.51021934
H    2.32128906  -0.79690969   1.93037927
H    2.75747895  -1.12964964  -1.85771930
H    4.16328859  -1.18111956  -0.71676970
H    2.69075894   1.37801945  -1.71346927
H    5.05912828   1.09094954   0.20548992
H    4.15627861   2.58351922  -0.12018995
H    5.45742798   0.97160965  -2.05820918

