%chk=mol_2296.chk
# wB97XD/Def2SVP opt pop=full gfinput

C 6 H 10 O 1

1 2
C    1.886721   0.192847   0.393913
C    4.697481  -0.095715  -0.164841
C    5.403710  -2.810892  -0.967426
C    5.258201  -2.833512  -3.864452
C    5.937803  -0.188462  -4.594944
O    3.917081   1.599332  -4.518108
C    5.550258   1.496493  -2.363216
H    1.430069   2.164341   0.824223
H    1.347469  -0.963647   2.022612
H    0.714052  -0.386903  -1.208858
H    5.766027   0.415230   1.534250
H    4.217453  -4.265924  -0.100968
H    7.365019  -3.181826  -0.401605
H    6.569180  -4.217755  -4.663466
H    3.343965  -3.297194  -4.503576
H    7.510603   0.071469  -5.859946
H    6.828752   3.030667  -1.966562

