%chk=mol_6857.chk
# wB97XD/Def2SVP opt freq pop=full gfinput

C 5 H 12 N 2

1 2
C    0.97613966   0.04165998   0.09321997
C    2.48434925  -0.09422997  -0.00033000
N    3.20242882   0.95024961   0.78072971
C    4.20440817  -0.07239997   1.20406950
C    5.49431801   0.06781998   0.40248984
C    3.14241862  -1.16758966   0.90235966
N    3.68607855  -2.26583910   0.09917996
H    0.48696980  -0.80822968  -0.39546987
H    0.63543975   0.95386964  -0.40894985
H    0.62846977   0.07483997   1.13186955
H    2.80654883  -0.11031996  -1.05077958
H    2.66321898   1.31803942   1.56498945
H    4.44226837  -0.01179000   2.27462912
H    5.31663799   0.08455997  -0.67806971
H    6.17235756  -0.76313967   0.62140977
H    6.01347780   0.99455965   0.66983974
H    2.55818915  -1.47927940   1.77537930
H    4.20870829  -1.96723926  -0.72412974
H    2.97121882  -2.90464902  -0.24704990

