%chk=mol_3031.chk
# wB97XD/Def2SVP opt freq pop=full gfinput

C 7 H 8

1 2
C    0.99263966  -0.03136999   0.01142000
C    2.51999903   0.00000000   0.00000000
C    3.05925894  -0.76322973  -1.20856965
C    3.00201893   1.36116946   0.00000000
C    3.39929867   2.48306894   0.00000000
C    3.91104841   3.92707872  -0.00045000
C    4.31196833   5.05730772  -0.00077000
H    0.59606975   0.48822984   0.89121968
H    0.62425977  -1.06253958   0.03738999
H    0.57352978   0.45555985  -0.87686968
H    2.87544894  -0.50641984   0.90590966
H    2.73104882  -0.30873987  -2.15064907
H    2.71622896  -1.80336928  -1.19728947
H    4.15524817  -0.77198970  -1.21002960
H    4.66815805   6.06092787  -0.00099000

