%chk=mol_1190.chk
# wB97XD/Def2SVP opt freq pop=full gfinput

C 6 H 11 N 1

1 2
C    0.94969970   0.00552000   0.01617999
C    2.46981907   0.00920000   0.01613999
C    3.02738905   1.43281937   0.00000000
C    4.47138834   1.43281937   0.00000000
C    5.66154814   1.43281937   0.00000000
C    7.10554743   1.43281937   0.00000000
N    7.60657740   2.79955888   0.01817999
H    0.57328981  -1.02207959   0.02782999
H    0.55553985   0.50132984  -0.87704968
H    0.55553985   0.52143979   0.89795965
H    2.83100891  -0.54570979  -0.85803968
H    2.83100891  -0.52574980   0.90266967
H    2.65576911   1.98174930   0.87335968
H    2.65577888   1.96180928  -0.88558966
H    7.48718739   0.91895968  -0.88864964
H    7.48971701   0.89946967   0.87541968
H    7.23830748   3.29339886  -0.79276967
H    8.61820698   2.78353906  -0.08791997

