%chk=mol_5397.chk
# wB97XD/Def2SVP opt pop=full gfinput

C 4 H 8 N 2 O 1

1 2
C    4.526518  -1.496172   0.233570
O    3.145468   0.825999   0.136268
C    4.547078   2.981534   0.188708
C    2.899879   5.285375   0.042292
N    6.995747   2.960388   0.336069
N    8.057225   5.368013   0.363394
C   10.488604   5.234277   0.480179
H    3.163137  -3.048676   0.191751
H    5.608820  -1.626355   1.990978
H    5.763835  -1.670556  -1.414252
H    0.902042   4.758803  -0.013644
H    3.346459   6.345304  -1.674543
H    3.214481   6.475789   1.701661
H   11.619511   6.979552   0.522169
H   11.529634   3.428908   0.541822

