%chk=mol_1197.chk
# wB97XD/Def2SVP opt freq pop=full gfinput

C 6 H 15 N 1

1 2
C    2.81773901  -1.26731956   1.19531953
C    2.14108920   0.08956996   1.32126939
C    2.88134909   1.22132945   0.58020979
C    2.06746936   2.51755905   0.67514974
C    4.33762836   1.44525945   1.04357958
N    4.43937826   1.80144930   2.46035910
C    5.82537794   2.03037930   2.84597898
H    2.19674921  -2.04046917   1.66011941
H    3.79045868  -1.28186953   1.69671929
H    2.96380877  -1.53782952   0.14452995
H    2.02006912   0.33564988   2.38226914
H    1.12764966   0.00203000   0.90981966
H    2.92483902   0.94782966  -0.48272982
H    1.93838930   2.84071875   1.71380937
H    1.07070959   2.38021898   0.24167991
H    2.55871892   3.32709861   0.12436996
H    4.77155828   2.24960923   0.43563983
H    4.92804813   0.54409981   0.83933967
H    4.05631828   1.04875958   3.03080893
H    6.26220798   2.85985899   2.28049898
H    6.43635798   1.13396966   2.69820905
H    5.86885786   2.29629922   3.90643835

