%chk=mol_0439.chk
# wB97XD/Def2SVP opt pop=full gfinput

C 4 H 6 N 2

1 2
C    1.702624   0.162479   0.071035
C    4.552879   0.013058   0.132375
N    5.535140  -2.396456   0.339773
C    5.931888   2.150489   0.000000
C    8.588843   2.150489   0.000000
N   10.763937   2.150489   0.000000
H    1.011911   2.109142   0.016856
H    0.903440  -0.745214   1.754781
H    0.975741  -0.816759  -1.601940
H    4.426608  -3.798595  -0.372068
H    7.392231  -2.600754  -0.125950
H    5.016354   3.976683  -0.144488

