%chk=mol_4793.chk
# wB97XD/Def2SVP opt freq pop=full gfinput

C 5 H 11 N 1 O 1

1 2
C    1.08007967   1.02199960  -0.66062975
C    2.48783922   0.88975966  -0.17408992
N    3.31793880   1.87538922  -0.27165991
O    4.55481863   1.47210944   0.25522989
C    5.47188807   2.57065916   0.19379993
C    5.33484793   3.40844870   1.45859945
C    6.87501764   1.99168921   0.07152998
H    0.88554966   0.23738991  -1.39626944
H    0.91209966   2.00138927  -1.11471951
H    0.39986986   0.88613963   0.18387993
H    2.77655911  -0.07776997   0.27257991
H    5.26699829   3.18591881  -0.69151974
H    5.50840807   2.79978895   2.35298896
H    4.32074833   3.81261873   1.54611945
H    6.04165792   4.24383831   1.45975947
H    7.10652733   1.33676958   0.91883969
H    7.62919712   2.78298903   0.02219999
H    6.95498753   1.37687945  -0.83162969

