%chk=mol_1148.chk
# wB97XD/Def2SVP opt freq pop=full gfinput

C 6 H 12

1 2
C    3.18370867  -1.08094966  -0.68265975
C    2.61839914  -0.11652996   0.35275987
C    3.13053870   1.32593942   0.18690993
C    2.42181921   2.25166917   1.17884946
C    4.62345791   1.42018950   0.39334986
C    5.48079824   1.87450922  -0.53027982
H    2.72571898  -2.06833911  -0.56460983
H    4.26553822  -1.20211947  -0.57140976
H    2.97662902  -0.73132974  -1.69897926
H    2.85360885  -0.49232981   1.35667944
H    1.52468944  -0.12183996   0.26376989
H    2.87520909   1.66687942  -0.82506967
H    2.61229897   1.95225918   2.21616912
H    1.33811951   2.23518920   1.01825964
H    2.75891876   3.28788877   1.06025958
H    5.01339817   1.09558952   1.35669959
H    5.14421797   2.21018910  -1.50601947
H    6.54575777   1.91915929  -0.32460988

