%chk=mol_6382.chk
# wB97XD/Def2SVP opt freq pop=full gfinput

C 4 H 5 N 1 O 2

1 2
O    0.84546971   1.25854945   0.27867988
N    2.14282918   1.78219926   0.22802992
C    2.98358870   0.80391973   0.11342996
C    4.44813824   1.00411963   0.04410999
C    5.24183846  -0.07768998   0.02548999
C    5.04536819   2.36190915   0.00455000
O    6.25244761   2.56643915  -0.07262997
H    0.29798988   2.05653930   0.40663984
H    2.63249922  -0.24405991   0.06820998
H    4.85061836  -1.08812964   0.06063998
H    6.32276773   0.02514999  -0.01669999
H    4.32508850   3.19504881   0.04500998

