%chk=mol_2433.chk
# wB97XD/Def2SVP opt freq pop=full gfinput

C 6 H 10 O 1

1 2
C    0.83016968   0.10030996   0.26199991
C    2.32548928   0.02251999  -0.04164998
C    3.16956878   0.95707965   0.85976970
O    3.51992869  -0.14690994   1.73404932
C    3.07756877  -1.09136951   0.72426969
C    2.63059902   0.13332994  -1.50202942
C    2.37865925  -0.87850964  -2.34205914
H    0.63649976   0.05729998   1.34004951
H    0.28609991  -0.73171973  -0.19870992
H    0.40048987   1.03645957  -0.11220996
H    2.61900902   1.73708940   1.39465952
H    4.06873846   1.39616942   0.41333982
H    3.93663836  -1.54703939   0.21960992
H    2.45354915  -1.88049936   1.15474963
H    3.05559874   1.06055963  -1.87783933
H    1.94734919  -1.81748939  -2.00785923
H    2.59961915  -0.78439975  -3.40155864

