%chk=mol_0707.chk
# wB97XD/Def2SVP opt freq pop=full gfinput

C 5 H 10 O 1

1 2
C    2.01150918  -0.59630978   1.07751954
C    2.86832905  -0.17140993  -0.10486996
C    3.12858891   1.30766952  -0.08974996
C    4.35415840   1.85015929  -0.01733999
C    4.62948847   3.31778860  -0.01170000
O    5.29767799   3.64107847   1.19637954
H    1.82661927  -1.67471945   1.04201961
H    1.04170966  -0.08738997   1.06792963
H    2.50690913  -0.36854985   2.02747917
H    2.35448909  -0.42866984  -1.03797960
H    3.80794859  -0.73613971  -0.09042996
H    2.25447917   1.95346928  -0.15457994
H    5.23020792   1.20684958   0.03587999
H    3.71585870   3.91707850  -0.07728997
H    5.27859783   3.58493853  -0.85067964
H    4.75140810   3.28829885   1.91945934

