%chk=mol_1363.chk
# wB97XD/Def2SVP opt pop=full gfinput

C 6 H 13 N 1

1 2
C    1.573159   0.016951  -0.153465
C    4.429102  -0.427588  -0.251995
C    5.028467  -2.505588  -2.169311
N    5.669802   1.971098  -0.902401
C    8.436323   1.876460  -0.763015
C    9.928432   1.693913  -3.172283
C    9.910518   4.117543  -1.703796
H    1.089616   1.452236   1.258123
H    0.579919  -1.723940   0.363111
H    0.839738   0.647023  -1.985006
H    5.046117  -1.040918   1.630229
H    4.517617  -1.933360  -4.092372
H    3.978384  -4.232873  -1.722655
H    7.039438  -2.992192  -2.154533
H    5.009437   3.355473   0.266867
H    9.210847   0.941443   0.897469
H    8.903388   1.641870  -4.945016
H   11.634609   0.564234  -3.154973
H   11.613104   4.637199  -0.692585
H    8.885417   5.703043  -2.497009

