%chk=mol_0841.chk
# wB97XD/Def2SVP opt pop=full gfinput

C 4 H 8 O 2

1 2
C    6.531801  -0.473735  -3.630050
O    5.204098  -0.063570  -1.326947
C    6.257167   1.598992   0.355061
C    8.401231   2.932817   0.139972
O    9.455963   4.592866   1.823397
C    8.147063   4.975082   4.142128
H    5.461157  -1.845790  -4.746028
H    8.408298  -1.268195  -3.271210
H    6.667615   1.275471  -4.726734
H    5.033191   1.693213   1.994530
H    9.622939   2.841921  -1.501217
H    9.217064   6.347798   5.257955
H    8.037497   3.216276   5.226529
H    6.260228   5.755785   3.808724

