%chk=mol_4124.chk
# wB97XD/Def2SVP opt pop=full gfinput

C 4 H 6 N 2 O 1

1 2
C    2.180290  -0.060226   0.537514
C    4.566977   0.088042  -0.251334
N    5.927920   2.185827  -0.764432
C    8.264509   1.590034  -1.579282
N   10.015794   3.125021  -2.276969
C    8.449173  -1.267345  -1.533569
O    5.975428  -2.100676  -0.663029
H    1.309580  -1.885550   0.870465
H    1.051047   1.615508   0.863170
H    5.253174   3.958957  -0.641770
H   11.599933   2.145973  -2.812895
H    8.801872  -2.015544  -3.425771
H    9.895381  -1.891465  -0.197552

