%chk=mol_3449.chk
# wB97XD/Def2SVP opt pop=full gfinput

C 5 H 10 O 2

1 2
C    6.488979   4.585382   5.417675
O    8.204114   4.039781   3.421916
C    6.961751   4.029576   1.026934
C    8.896245   3.471030  -1.040786
C   11.129429   5.298395  -1.042033
C   10.408480   7.973794  -1.711601
O    8.378139   8.596724  -2.643368
H    7.543635   4.598365   7.193828
H    5.023478   3.131352   5.527978
H    5.630080   6.446782   5.147123
H    6.043665   5.857055   0.710046
H    5.504564   2.557158   1.017202
H    7.951079   3.482198  -2.883552
H    9.647090   1.561991  -0.743456
H   12.537048   4.683233  -2.430112
H   12.056604   5.333752   0.807593
H   11.904840   9.392600  -1.397868

