%chk=mol_6556.chk
# wB97XD/Def2SVP opt pop=full gfinput

C 3 H 9 N 1 O 2 S 1

1 2
C    2.525014  -0.748785   0.114026
C    5.303819  -0.181735   0.563762
C    6.144274   2.163170  -0.877891
S    9.410950   2.833758  -0.311786
N    9.869189   5.365594  -2.162470
O    9.743032   3.733456   2.242311
O   10.963813   0.865684  -1.387513
H    1.966997  -2.456304   1.139089
H    2.146011  -1.054259  -1.896491
H    1.335564   0.811316   0.770007
H    6.437730  -1.814024  -0.020825
H    5.631573   0.075287   2.593082
H    5.063616   3.822803  -0.280473
H    5.917035   1.888517  -2.915432
H   11.166751   4.949665  -3.531558
H   10.358892   6.889752  -1.083134

