%chk=mol_6369.chk
# wB97XD/Def2SVP opt freq pop=full gfinput

C 5 H 8 N 2

1 2
C    0.99541962  -0.04222998   0.07619997
C    2.50409913   0.06212998  -0.00372000
C    3.18522882   1.10361958   0.90920967
C    4.21103811  -0.00695000   1.22206962
N    3.18393874  -0.99673963   0.78061968
C    5.41359806  -0.01822999   0.39957985
N    6.36100769  -0.03640999  -0.27177989
H    0.63586974  -0.91236967  -0.48337984
H    0.52866977   0.84754968  -0.35906988
H    0.64242977  -0.13332994   1.10928965
H    2.85268903   0.11447996  -1.04411960
H    2.59220910   1.40906954   1.78040934
H    3.55971861   2.00198936   0.40975985
H    4.44654799  -0.08853997   2.28940916
H    3.54342866  -1.77253926   0.22352992

