%chk=mol_2940.chk
# wB97XD/Def2SVP opt pop=full gfinput

C 6 H 6 O 1

1 2
C    1.889726   0.000000   0.000000
C    4.618491   0.000000   0.000000
C    6.867567   0.000000   0.000000
C    9.596332   0.000000   0.000000
O   10.491873  -1.264832  -2.197166
C   10.507217   2.572238   0.000000
C   11.257968   4.692322   0.000000
H    1.145231   1.929203   0.021959
H    1.145042  -0.983584   1.659671
H    1.145136  -0.945468  -1.681743
H   10.323139  -1.027898   1.640774
H    9.791182  -0.344308  -3.623493
H   11.933054   6.591516   0.000699

