%chk=mol_0053.chk
# wB97XD/Def2SVP opt freq pop=full gfinput

C 4 H 10

1 2
C    0.98783958  -0.00764000  -0.00077000
C    2.51476884   0.00873000  -0.00625000
C    3.05522895  -0.74688977  -1.21801949
C    3.03627896   1.44370937   0.00805000
H    0.59668976   0.50830984   0.88267964
H    0.61008972  -1.03557956   0.01800999
H    0.58005983   0.48659983  -0.88953966
H    2.86833906  -0.49598980   0.90095967
H    2.72899890  -0.28298989  -2.15530920
H    2.70743895  -1.78541934  -1.21533954
H    4.15030861  -0.76105970  -1.21051943
H    2.71065903   1.99526918  -0.88070965
H    4.13106871   1.45904946   0.03372999
H    2.67361903   1.98029923   0.89120966

