%chk=mol_4584.chk
# wB97XD/Def2SVP opt pop=full gfinput

C 4 H 8 N 2 O 1

1 2
C    1.865651  -0.154485  -0.340377
C    4.676486   0.067728   0.007691
C    5.963295  -2.412954   0.391948
O    4.859336  -4.442047   0.199479
C    6.021102   2.241083   0.034941
N    4.909471   4.576426  -0.093674
N    8.604282   2.368054   0.177974
H    0.958469   1.628301  -0.855082
H    0.979540  -0.835467   1.401402
H    1.428671  -1.489482  -1.862004
H    7.979690  -2.348967   0.894672
H    3.060506   4.584306   0.424527
H    5.885798   5.848891   0.964989
H    9.496289   0.917934  -0.709460
H    9.213152   4.024814  -0.587554

