%chk=mol_0909.chk
# wB97XD/Def2SVP opt freq pop=full gfinput

C 4 H 8 O 2

1 2
O    2.58950901  -0.85703969   1.25148952
C    2.66007900  -0.23488992  -0.02025999
C    3.02084875   1.19438958   0.20295992
C    4.08850861   1.80196929  -0.33985987
C    4.45627785   3.22805858  -0.09899996
O    5.73767757   3.25811863   0.50713980
H    2.39858913  -1.79622924   1.09208953
H    1.68140936  -0.30620989  -0.50388980
H    3.40144873  -0.75951970  -0.63130981
H    2.35891914   1.74902940   0.86434972
H    4.75512791   1.24630952  -0.99562967
H    3.74613857   3.74214864   0.55650979
H    4.50673819   3.77161860  -1.04673958
H    5.68381786   2.68832898   1.29428959

