%chk=mol_5359.chk
# wB97XD/Def2SVP opt pop=full gfinput

C 5 H 8 N 2

1 2
C    1.788380  -0.023281   1.063443
C    4.482468  -0.065422   0.250389
C    5.303535   1.421660  -2.029849
N    7.961152   2.175094  -2.339538
N    9.293106   0.011697  -2.925258
C    7.889153  -1.984383  -2.725609
C    5.238321  -1.421906  -2.134748
H    1.409093   1.674562   2.183408
H    1.373888  -1.675072   2.237965
H    0.487398  -0.035943  -0.545583
H    5.756257  -0.131393   1.854086
H    3.907557   2.477129  -3.091138
H    8.244062   3.528251  -3.690522
H    8.548062  -3.930630  -3.034088
H    3.810576  -2.298984  -3.302731

