%chk=mol_5968.chk
# wB97XD/Def2SVP opt freq pop=full gfinput

C 5 H 5 N 1 O 1

1 2
O    1.22897959  -0.15259995  -0.43414983
C    2.41477919   0.07526997  -0.26944989
C    2.93901873   1.36264944   0.25391990
C    4.27081871   1.27610946   0.14059994
C    4.72821808  -0.00165000  -0.39519987
C    4.42137814  -1.26622951   0.33792987
N    3.50453877  -0.73564970  -0.61676979
H    2.32187915   2.17049932   0.59974980
H    4.95451832   2.06729913   0.41895986
H    5.38483810  -0.00114000  -1.25518954
H    4.89212847  -2.18524933   0.01693999
H    4.08763838  -1.23827958   1.36684942

