%chk=mol_4351.chk
# wB97XD/Def2SVP opt freq pop=full gfinput

C 5 H 7 N 1 O 1

1 2
C    1.35707951  -0.58853978  -0.18673992
C    2.65478897  -0.29594988  -0.04347998
C    3.16814876   1.05210960  -0.11297996
C    4.46796799   1.34180951   0.02878999
N    4.93414783   2.62687898  -0.04069998
C    6.24462748   2.99608874   0.09352996
O    6.62364769   4.15834856   0.02502999
H    1.01467967  -1.61723936  -0.12717995
H    0.60583979   0.17443992  -0.36530986
H    3.36080861  -1.10488963   0.13356994
H    2.44757915   1.84776938  -0.28904986
H    5.20744801   0.56368983   0.20531993
H    4.29046822   3.39316869  -0.20316993
H    6.93469763   2.15466928   0.26944989

