%chk=mol_1980.chk
# wB97XD/Def2SVP opt pop=full gfinput

C 6 H 11 N 1

1 2
N    5.680876  -1.970909  -1.168682
C    4.703245   0.126101   0.333178
C    6.236588   2.535994  -0.089138
C    6.180293   3.513624  -2.823024
C    6.356528   6.312403  -2.472914
C    5.869452   6.990531  -0.087929
C    5.289684   4.752245   1.531510
H    4.674162  -3.564836  -0.771613
H    7.500512  -2.343279  -0.656226
H    4.755930  -0.395557   2.336665
H    2.718957   0.438700  -0.169905
H    8.216983   2.164700   0.429270
H    4.428479   3.031631  -3.813864
H    7.787032   2.786722  -3.903267
H    6.761232   7.613631  -3.995694
H    5.825232   8.918827   0.586836
H    6.305922   4.835015   3.330642
H    3.257963   4.656890   1.913801

