%chk=mol_5567.chk
# wB97XD/Def2SVP opt freq pop=full gfinput

C 4 H 9 N 1 O 2

1 2
N    1.05827963  -0.14788994  -0.16070993
C    2.52508903  -0.07315997  -0.06266998
C    3.34107876  -0.68328971  -1.17808962
O    2.57310891  -1.22491956  -2.26769900
C    3.27489877   0.81221968  -1.02228963
C    4.47683859   1.56554949  -0.56968981
O    5.25242805   1.93981934  -1.69845939
H    0.63050979   0.64823979   0.31563988
H    0.71457976  -0.97673965   0.32852986
H    2.92344904  -0.17164993   0.94435966
H    4.25984812  -1.19317949  -0.91120964
H    1.63088942  -1.00348961  -2.12136912
H    2.69982886   1.37809944  -1.74640942
H    5.10861778   0.97832960   0.10477996
H    4.17658854   2.47816896  -0.04653998
H    5.35676813   1.14641953  -2.25246906

