%chk=mol_3809.chk
# wB97XD/Def2SVP opt freq pop=full gfinput

C 7 H 14

1 2
C    3.20377898   1.02912962  -2.45076919
C    3.21553874   0.16176994  -1.20065951
C    3.80360866   0.86710972   0.02679999
C    5.24264812   1.33062959  -0.12634996
C    6.25829792   0.22765993  -0.26102990
C    5.53082752   2.64783907  -0.10697996
C    6.86781740   3.31031871  -0.20820993
H    2.69555902   0.50473982  -3.26659870
H    4.21907854   1.26093960  -2.78735876
H    2.67445898   1.97056925  -2.27164912
H    3.76091838  -0.76579970  -1.40698957
H    2.18446898  -0.13116995  -0.96880966
H    3.74957871   0.18531993   0.88538963
H    3.15369892   1.71418929   0.28357992
H    6.06671762  -0.36122987  -1.16344965
H    6.20469761  -0.44007984   0.60525972
H    7.28662729   0.58643979  -0.33006990
H    4.70713806   3.35404873  -0.00209000
H    7.70903683   2.61555910  -0.19672993
H    6.99878740   3.99663854   0.63485980
H    6.92105722   3.89487863  -1.13209963

