%chk=mol_7124.chk
# wB97XD/Def2SVP opt freq pop=full gfinput

C 6 H 11 N 1

1 2
C    0.82218969   0.24260992   0.01040000
C    2.35086918   0.03870998   0.01379000
C    2.73239899  -0.75217974   1.27892947
C    2.73449898  -0.77812970  -1.23408949
C    3.02738905   1.43281937   0.00000000
C    4.47075844   1.39044952   0.00092000
N    5.62127781   1.35668945   0.00166000
H    0.49877980   0.79160970  -0.88075966
H    0.49729982   0.81012970   0.88931966
H    0.29303989  -0.71698976   0.01997999
H    2.48661900  -0.18795994   2.18530917
H    3.80266881  -0.98217964   1.30591953
H    2.19341922  -1.70564926   1.32481945
H    2.49053907  -0.23262991  -2.15237904
H    2.19534898  -1.73209929  -1.26125956
H    3.80476856  -1.00892961  -1.25437963
H    2.68687916   2.00878930   0.87024963
H    2.68756890   1.99108922  -0.88197964

