%chk=mol_6066.chk
# wB97XD/Def2SVP opt pop=full gfinput

C 4 H 5 N 1 O 2

1 2
O    1.596743   0.067652   0.064515
C    3.922486   0.008239   0.098738
C    5.517263   2.355922  -0.102933
O    7.781609   1.885531   1.278324
N    9.300476   0.013606   0.120980
C    8.089899  -2.077886  -0.287635
C    5.340612  -2.442263   0.242490
H    4.536288   3.942063   0.782498
H    5.936178   2.788763  -2.080324
H    9.147692  -3.714861  -1.023910
H    4.582699  -3.736215  -1.181173
H    5.126827  -3.276917   2.119857

