%chk=mol_6104.chk
# wB97XD/Def2SVP opt freq pop=full gfinput

C 5 H 9 N 1 O 1

1 2
O    0.87112963   0.14637995  -0.34197986
C    2.01074934   0.13781995   0.11542995
C    2.98853874   1.27843952  -0.03191999
C    2.31562901   2.64133906  -0.12436996
C    3.26278877   3.55517864   0.62678981
N    3.70978856   2.71571898   1.73344946
C    3.92080832   1.38027954   1.17508948
H    2.41446900  -0.78491974   0.56723982
H    3.58496857   1.08141959  -0.93119961
H    1.32965946   2.63907886   0.35704988
H    2.17924905   2.95949888  -1.16297948
H    4.11172867   3.84278870  -0.00484000
H    2.76566887   4.46284819   0.98069966
H    4.56200838   3.08513880   2.15240908
H    4.96221781   1.28085947   0.84565973
H    3.73853874   0.61882973   1.94006920

