%chk=mol_4345.chk
# wB97XD/Def2SVP opt freq pop=full gfinput

C 5 H 7 N 1 O 1

1 2
C    1.00099957  -0.05422998   0.00309000
C    2.51999903   0.00000000   0.00000000
C    3.00201893   1.36116946   0.00000000
C    3.39929867   2.48306894   0.00000000
C    3.94527841   3.81740856   0.00000000
N    5.30242825   3.89742851   0.00000000
O    3.21865892   4.79943800   0.00000000
H    0.65765971  -1.09365952   0.00240000
H    0.58495975   0.44183984  -0.88072968
H    0.58868980   0.43941984   0.88999969
H    2.89563894  -0.53271979  -0.88083965
H    2.89930892  -0.53409982   0.87842965
H    5.88587809   3.07336879   0.00000000
H    5.72834826   4.81296778   0.00000000

