%chk=mol_6287.chk
# wB97XD/Def2SVP opt freq pop=full gfinput

C 4 H 5 N 1 O 2

1 2
O    1.27298951   0.00325000   0.73583972
C    2.37570906   0.09329996   0.21505992
N    3.13281870   1.22322953   0.18190993
C    2.70993900   2.60089898   0.44824985
C    3.88645864   3.04201889  -0.44615984
O    4.33620834   4.10624838  -0.81596971
C    4.25808859   1.56444943  -0.68648970
H    2.86212897  -0.75752974  -0.28992987
H    2.80503893   2.88595891   1.49732947
H    1.72353935   2.84741902   0.05119998
H    4.13814831   1.23009956  -1.71857941
H    5.22515821   1.26721954  -0.27755991

