%chk=mol_3988.chk
# wB97XD/Def2SVP opt freq pop=full gfinput

C 5 H 9 N 1 O 1

1 2
C    0.97567964   0.02040999   0.20563991
C    2.46768904  -0.04510998  -0.08451997
C    2.79109883  -0.02314999  -1.57151937
N    3.23613882   0.98065966   0.66180974
C    4.12456846   0.00400000   1.32060945
C    3.24344897  -1.10119963   0.72628975
O    3.18797898  -2.30664921   0.84538966
H    0.76776969   0.01567999   1.28181946
H    0.45818982  -0.84054971  -0.23186991
H    0.52996975   0.92778963  -0.21711992
H    3.87153840  -0.04842998  -1.75548935
H    2.39286923   0.87871963  -2.04962921
H    2.35242915  -0.89112967  -2.07590914
H    2.67780900   1.52296948   1.32307959
H    5.14958811   0.00103000   0.94152963
H    4.12180853   0.04492998   2.41186905

