%chk=mol_6411.chk
# wB97XD/Def2SVP opt freq pop=full gfinput

C 6 H 6 S 1

1 2
C    2.45868897   0.38914984   0.98795968
C    2.08054924   0.00702000  -0.47400981
C    2.38942909   1.40284956  -0.81643969
C    2.47513914   2.39625907  -1.72544932
S    3.04802895   3.82412839  -0.89221966
C    3.13871884   3.00725889   0.65238971
C    2.73823905   1.73364937   0.46206984
H    3.32664871  -0.09060996   1.45321953
H    1.67094934   0.37620986   1.74984932
H    1.04754961  -0.28217989  -0.69521976
H    2.70954895  -0.71882975  -1.00147963
H    2.26036906   2.41167903  -2.78415895
H    3.46759868   3.52396846   1.54262948

