%chk=mol_1410.chk
# wB97XD/Def2SVP opt freq pop=full gfinput

C 7 H 10

1 2
C    0.99727964   0.02707999   0.10663996
C    2.47730899  -0.01851999  -0.01030000
C    3.25759888  -1.10968959  -0.05291998
C    4.70627832  -0.75159973  -0.18474993
C    4.69790840   0.75096971  -0.31607988
C    5.74647808   1.51124942  -0.65087980
C    3.28618884   1.24358952  -0.10248996
H    0.56372982  -0.97849965   0.13212995
H    0.56397980   0.55742979  -0.74789971
H    0.70182973   0.54643983   1.02375960
H    2.90494895  -2.13000917   0.00003000
H    5.25353765  -1.06483960   0.71035975
H    5.13936806  -1.22630954  -1.07069957
H    6.72535753   1.07457960  -0.82609969
H    5.64914799   2.58672905  -0.76383972
H    2.95393896   1.85942936  -0.94334966
H    3.21125865   1.81120932   0.83082968

