%chk=mol_5108.chk
# wB97XD/Def2SVP opt pop=full gfinput

C 5 H 11 N 1 O 1

1 2
C    2.876730   0.733932   3.469537
N    5.573690   0.206018   3.428284
C    6.606350   0.508847   0.875699
C    9.360853  -0.274917   0.804986
C   11.196533   1.402876   0.284101
O    9.710622  -2.818262   1.286696
C   12.231611  -3.747724   1.354688
H    2.152927   0.473735   5.388894
H    1.829482  -0.537816   2.218406
H    2.492001   2.690876   2.920364
H    5.886176  -1.621631   3.961376
H    6.392395   2.479434   0.269721
H    5.564147  -0.670040  -0.475682
H   10.741487   3.373596  -0.064251
H   13.180613   0.911623   0.208777
H   12.154227  -5.763986   1.806616
H   13.331451  -2.807169   2.833720
H   13.143914  -3.545618  -0.491348

