%chk=mol_2813.chk
# wB97XD/Def2SVP opt pop=full gfinput

C 6 H 8 O 1

1 2
C    1.889726   0.000000   0.000000
C    4.618491   0.000000   0.000000
C    6.867567   0.000000   0.000000
C    9.524522   0.000000   0.000000
C   10.847047   2.129476  -0.367438
C   13.660773   2.259319  -0.381536
O   14.458049   3.222342  -2.751744
H    1.145174   1.929184   0.021845
H    1.145023  -0.983470   1.659765
H    1.145042  -0.945581  -1.681630
H   10.480005  -1.790100   0.308951
H    9.863199   3.911336  -0.661536
H   14.545146   0.412074  -0.089176
H   14.324956   3.539363   1.100180
H   13.659148   2.191459  -4.046489

