%chk=mol_3038.chk
# wB97XD/Def2SVP opt freq pop=full gfinput

C 5 H 10 O 2

1 2
C    1.49588954  -0.08014997   0.42500985
C    2.75984883   0.05117998  -0.42271984
C    2.58303881  -0.66804975  -1.76677930
O    3.83586860  -0.81118971  -2.43157911
C    3.07437897   1.50960946  -0.64256978
C    4.11926842   2.21790934   0.18025993
O    4.39471817   1.75571942  -1.15009952
H    1.61549938   0.43594986   1.38416946
H    1.27089953  -1.13165951   0.63240975
H    0.62875980   0.36032987  -0.08132997
H    3.59225869  -0.41859984   0.11757996
H    1.90338933  -0.12315995  -2.43115902
H    2.18160915  -1.67561936  -1.61949933
H    4.29026842   0.05248998  -2.37834907
H    2.26188922   2.08279920  -1.07068956
H    4.59102869   1.69157934   1.00060964
H    4.02161837   3.28671861   0.32647988

