%chk=mol_4068.chk
# wB97XD/Def2SVP opt pop=full gfinput

C 4 H 7 N 1 O 2

1 2
C    1.846470  -0.013209   0.101119
C    4.707138  -0.042122   0.174346
C    5.862686   2.110030   1.666720
O    8.177639   1.072552   2.624376
C    7.960868  -1.500461   2.578909
O    9.549202  -2.974334   3.356607
N    5.730273  -2.179837   1.453861
H    1.127543  -1.651488  -0.939723
H    1.152223   1.699487  -0.828040
H    1.039463  -0.090121   2.005944
H    5.474348  -0.065044  -1.751171
H    4.707705   2.704330   3.279185
H    6.265746   3.754886   0.481200
H    5.567152  -3.994106   0.873224

