%chk=mol_6631.chk
# wB97XD/Def2SVP opt freq pop=full gfinput

C 3 H 6 O 3 S 1

1 2
C    0.91088969  -0.01301000  -0.01793999
S    2.67124891  -0.22433992   0.14398995
O    2.95077896  -0.54930979   1.52927947
O    3.12004876  -1.09861958  -0.92264962
C    3.33615875   1.38557947  -0.16776992
C    2.97071886   1.79222929  -1.55144942
O    2.22845936   2.74234891  -1.78624940
H    0.67869973   0.32872987  -1.02695954
H    0.57351983   0.70890975   0.72662973
H    0.43972984  -0.98188967   0.15822995
H    4.42341852   1.33704948  -0.07448997
H    2.93136883   2.08180928   0.56921977
H    3.39887857   1.19027960  -2.37189913

