%chk=mol_6171.chk
# wB97XD/Def2SVP opt freq pop=full gfinput

C 4 H 5 N 1 O 2

1 2
O    2.50305891  -0.47259983  -1.33161938
C    2.41157913   0.03216999  -0.00067000
C    2.82330894   1.45946956  -0.00370000
N    2.07895923   2.54013896   0.14859995
C    2.98011899   3.57066870   0.07444998
C    4.24630833   3.07346892  -0.09866996
O    4.16412830   1.71508944  -0.13930994
H    2.16919923  -1.38389945  -1.30563951
H    3.06409883  -0.55929983   0.64839977
H    1.37720954  -0.06715997   0.34216985
H    2.67200899   4.60400867   0.15099995
H    5.23173809   3.50170875  -0.20354992

