%chk=mol_2695.chk
# wB97XD/Def2SVP opt pop=full gfinput

C 6 H 10 O 1

1 2
C    2.042151   0.670909   1.702889
C    4.443672   0.212972   0.266470
C    4.959473  -2.019985  -0.826812
C    6.367678   2.278424   0.137591
C    5.479714   4.824830  -0.932410
C    6.749799   5.940694   1.405956
O    6.977058   3.463925   2.547389
H    2.439731   1.454825   3.572716
H    0.971168  -1.076105   1.980055
H    0.827020   1.992584   0.679621
H    3.631090  -3.581125  -0.734178
H    6.721264  -2.370265  -1.819617
H    8.137142   1.642474  -0.750259
H    3.441928   5.148672  -1.008377
H    6.329146   5.369279  -2.733602
H    8.607854   6.792772   1.091846
H    5.572651   7.203655   2.538715

