%chk=mol_1108.chk
# wB97XD/Def2SVP opt freq pop=full gfinput

C 4 H 5 N 1 O 1

1 2
O    1.20791960   0.11472996   0.49723983
C    2.36645913   0.03054999   0.12930995
C    3.17331862  -1.24420953  -0.07104997
C    4.48958826  -0.66269976  -0.52011979
C    4.43426800   0.67002976  -0.56362981
N    3.20022893   1.08973956  -0.18692993
H    2.72101903  -1.86314929  -0.84882969
H    3.27350879  -1.78407931   0.87293971
H    5.35523796  -1.25804949  -0.77051967
H    5.21040773   1.36806941  -0.84474969
H    2.89228868   2.05064917  -0.13226995

