%chk=mol_6840.chk
# wB97XD/Def2SVP opt freq pop=full gfinput

C 6 H 11 N 1

1 2
C    0.90168965  -0.11158996   0.29313987
C    2.37513924   0.12734996   0.02302999
N    2.96454883   1.15252960   0.92888969
C    4.21356869   0.35012987   0.95815963
C    3.37850857  -0.90404969   0.61234975
C    3.98401833  -1.85442924  -0.35441986
C    4.94400835  -2.69740915   0.04399998
H    0.54110980  -0.96487963  -0.29106990
H    0.30698988   0.76237971   0.00611000
H    0.70530975  -0.32407990   1.34996951
H    2.54599905   0.36835986  -1.03580964
H    2.50724888   1.20608962   1.83981931
H    4.94063807   0.66084975   0.19754992
H    4.71631813   0.32855988   1.93001926
H    2.99137878  -1.41671944   1.50528944
H    3.63687873  -1.86103928  -1.38361955
H    5.30923796  -2.71351886   1.06637955
H    5.39094782  -3.39679861  -0.65627974

