%chk=mol_4442.chk
# wB97XD/Def2SVP opt freq pop=full gfinput

C 4 H 10 N 2 O 1

1 2
C    1.32354951   0.29790989   1.56951940
C    1.85757935   0.62910980   0.18840994
C    2.74147892   1.86133933   0.22147992
C    2.06803918   3.20774889   0.47444984
O    2.34281898   4.10996866  -0.58387977
N    4.02310848   1.70018935   0.03041999
N    4.78462839   2.81762910   0.07219997
H    0.73833978  -0.62584978   1.53911936
H    0.67638969   1.09539950   1.94726920
H    2.14080930   0.16589993   2.28629923
H    1.03180957   0.81050974  -0.50830984
H    2.43592906  -0.21907991  -0.19571993
H    2.43711901   3.62881851   1.41474950
H    0.98480964   3.08690882   0.54847980
H    3.30752873   4.00229836  -0.73655975
H    5.66223764   2.63009906  -0.42594984
H    5.10068798   2.98354888   1.03400958

