%chk=mol_6892.chk
# wB97XD/Def2SVP opt freq pop=full gfinput

C 5 H 8 N 2

1 2
C    1.00223970   0.01864999  -0.09332997
C    2.50036907   0.03242999   0.07906997
N    3.09656882   1.18871963   0.12207995
N    4.43624830   1.15629959   0.34738988
C    5.25457811   0.03508998  -0.11147996
C    4.51916790  -1.26060951   0.03098999
C    3.18747878  -1.28743947   0.16830994
H    0.61251974  -1.00107956  -0.14759994
H    0.73876971   0.54725981  -1.01419961
H    0.53860980   0.52931982   0.75599974
H    4.86948824   2.04815912   0.10793996
H    6.16911793   0.00290000   0.48979980
H    5.54361773   0.17612994  -1.15873957
H    5.09292793  -2.18009925   0.02582999
H    2.61233902  -2.19543910   0.27229992

