%chk=mol_5854.chk
# wB97XD/Def2SVP opt freq pop=full gfinput

C 5 H 7 N 1 O 1

1 2
N    2.71683908  -0.96604967  -0.46381983
C    2.18094921   0.15265994   0.09943996
O    1.05865955   0.13388994   0.59062976
C    3.04031897   1.38523948   0.02884999
C    2.40433908   2.56460905   0.13043995
C    4.48958826   1.27879953  -0.01437999
C    5.30366802   2.06793928  -0.72827977
H    3.57388878  -0.95364964  -0.99706966
H    2.13504934  -1.79216933  -0.49245980
H    1.32159948   2.61742878   0.21167992
H    2.93928885   3.50760865   0.15097995
H    4.92117834   0.47845981   0.58486980
H    4.92892838   2.87504911  -1.35062945
H    6.37893772   1.91891932  -0.70314974

