%chk=mol_3555.chk
# wB97XD/Def2SVP opt freq pop=full gfinput

C 6 H 8 O 1

1 2
O    1.15141964   0.01203999   0.32762986
C    2.55269909  -0.03298999   0.06549998
C    2.88113904  -1.25666952  -0.80639970
C    3.23476863  -0.66527975  -2.13878942
C    3.29200888   0.67039973  -2.09689927
C    2.97337890   1.15205967  -0.77565974
C    3.05898881   2.42659903  -0.37935987
H    0.83020973   0.88799971   0.05543998
H    3.08198881  -0.07180998   1.02287960
H    2.03702927  -1.94774926  -0.89305967
H    3.74855852  -1.79711926  -0.41144985
H    3.44620872  -1.26132953  -3.01555896
H    3.55656886   1.30753946  -2.92895889
H    2.81481910   2.71271896   0.63926977
H    3.38328886   3.21218872  -1.05477965

