%chk=mol_2498.chk
# wB97XD/Def2SVP opt pop=full gfinput

C 7 H 8

1 2
C    1.469640   0.035584  -0.286407
C    4.290566  -0.027571  -0.399601
C    5.784754   1.672389   0.740678
C    8.510817   1.571874   0.603994
C   10.013319   3.265749   1.739644
C   12.687149   3.103573   1.561594
C   14.946940   2.973749   1.416199
H    0.760350  -1.712753   0.559812
H    0.692509   0.196475  -2.195881
H    0.765415   1.626072   0.832878
H    5.112370  -1.567244  -1.485948
H    4.943996   3.205845   1.823132
H    9.347530   0.036207  -0.479707
H    9.229460   4.816156   2.832265
H   16.952261   2.856775   1.285940

