%chk=mol_5573.chk
# wB97XD/Def2SVP opt freq pop=full gfinput

C 4 H 5 N 1 O 2

1 2
N    0.96695966   0.02302999  -0.05156998
C    2.31047893  -0.02112999  -0.02267999
C    3.16155887   1.06024969  -0.01256000
O    4.45951843   0.64456975   0.01881999
C    4.43577814  -0.71783972   0.02570999
C    3.13922882  -1.16015959   0.00040000
O    2.78605890  -2.45547915  -0.00779000
H    0.46443981   0.90360969   0.02417999
H    0.37526986  -0.78880972   0.07927997
H    3.01928878   2.13065910  -0.02265999
H    5.39899778  -1.20754957   0.04494998
H    1.81993937  -2.51614904  -0.07125998

