%chk=mol_3890.chk
# wB97XD/Def2SVP opt freq pop=full gfinput

C 5 H 9 N 1 O 1

1 2
C    0.95576966   0.09820996  -0.21210992
C    2.42431903  -0.01578999   0.01523999
C    3.27721882  -0.80869967  -0.93533963
C    3.39396882   0.69819969  -0.90066969
C    4.60246801   1.32904947  -0.33366987
N    5.70487785   1.22437954  -0.99658966
O    6.71773767   1.88879931  -0.29551989
H    0.56853980   0.99696964   0.27785990
H    0.44112983  -0.76979971   0.21164992
H    0.70605969   0.15605995  -1.27656949
H    2.66134882  -0.08116997   1.07147968
H    2.81620884  -1.25527954  -1.80903924
H    4.09314823  -1.39419949  -0.52481979
H    2.98059893   1.23419952  -1.74955940
H    4.51517820   1.86911929   0.62445974
H    7.49485731   1.74392939  -0.86710972

