%chk=mol_2489.chk
# wB97XD/Def2SVP opt freq pop=full gfinput

C 5 H 6 O 2

1 2
C    0.93154967  -0.08260997   0.10543996
C    2.26472902  -0.05133998  -0.02722999
C    3.05016899   1.23928952  -0.10141996
O    4.44559860   1.16464961   0.23026991
C    5.01113844  -0.06902997   0.09567996
C    4.32194853  -1.19597948  -0.08578997
O    2.95680881  -1.24970961  -0.13764995
H    0.34410989   0.82659966   0.17119993
H    0.40188986  -1.02899969   0.13695996
H    2.61257911   1.98088920   0.57745975
H    2.97935891   1.64407933  -1.11804950
H    6.08692741  -0.02969999   0.18659993
H    4.76510811  -2.17624903  -0.16936994

