%chk=mol_5394.chk
# wB97XD/Def2SVP opt freq pop=full gfinput

C 4 H 11 N 1 O 2

1 2
C    1.11886966  -0.23379990   0.28115988
O    2.51386905   0.01645999   0.38315985
C    2.86774874   1.40728939   0.20344992
C    2.37243915   2.29441905   1.36512959
N    2.85056877   1.84435940   2.67385888
C    4.39471817   1.46445954   0.06241998
O    4.79258823   0.71348971  -1.08976960
H    0.97202969  -1.31474948   0.20423992
H    0.69410974   0.23910990  -0.60869980
H    0.60148978   0.11313996   1.18053949
H    2.42220902   1.74875939  -0.73947972
H    1.27702951   2.29358912   1.38431942
H    2.69102883   3.33020878   1.20521951
H    2.68394899   0.83904970   2.75324893
H    2.30798912   2.29063916   3.41117883
H    4.89973831   1.01940954   0.92594963
H    4.74618816   2.49257922  -0.06656998
H    4.36244822  -0.15747994  -0.97817963

