%chk=mol_7058.chk
# wB97XD/Def2SVP opt freq pop=full gfinput

C 6 H 9 N 1

1 2
C    1.14789963   0.14913996   0.07266998
C    2.64410877  -0.11366996  -0.04848998
C    2.95688891  -0.81084967  -1.30890954
C    3.20920873  -1.38869941  -2.33230925
C    3.41999865   1.17476952  -0.13229994
C    3.71637869   1.96048927   1.12375951
N    4.77628803   1.25118947   0.42044982
H    0.92219967   0.69104970   0.99742967
H    0.58422977  -0.79028970   0.08298997
H    0.77405971   0.75282967  -0.76282972
H    2.97492886  -0.71859974   0.80435973
H    3.43955874  -1.90273929  -3.23622870
H    3.22402883   1.74466932  -1.03554964
H    3.42880869   1.54693937   2.08253932
H    3.73422861   3.04164886   1.06826961
H    5.35021830   1.88742924  -0.13603996

