%chk=mol_6204.chk
# wB97XD/Def2SVP opt freq pop=full gfinput

C 5 H 7 N 1 O 1

1 2
O    0.96297961   0.37733987  -0.15938994
C    2.31025934   0.01017000   0.17930993
C    2.91195893  -0.81714970  -0.96746963
C    2.23795938  -2.15705919  -1.12404954
C    2.86297894  -3.33593869  -1.01314962
C    3.13142896   1.21245956   0.42655984
N    3.76250863   2.16364932   0.64365977
H    0.64154977   0.97211963   0.54135984
H    2.26400924  -0.59268981   1.09406960
H    3.98830867  -0.95804965  -0.80349970
H    2.80002880  -0.27608988  -1.91607928
H    1.17339957  -2.14065933  -1.35597944
H    3.92417860  -3.40774894  -0.79558969
H    2.31763911  -4.26578808  -1.14831960

