%chk=mol_4946.chk
# wB97XD/Def2SVP opt pop=full gfinput

C 4 H 9 N 1 O 2

1 2
C    1.176884   1.506527   1.301568
C    2.463239  -0.792986   0.178881
O    5.045210  -0.799751   0.974683
N    6.251139  -2.908137  -0.126479
C    7.295874  -4.657683   1.459568
C    6.307887  -4.730854   4.125272
O    8.908850  -6.145881   0.694890
H   -0.815322   1.576145   0.756457
H    2.103964   3.243110   0.663332
H    1.305347   1.479429   3.366661
H    2.372117  -0.711652  -1.888611
H    1.525160  -2.518192   0.835486
H    7.221550  -2.580516  -1.746863
H    4.258384  -4.989803   4.117486
H    6.802296  -2.986429   5.114619
H    7.163895  -6.321984   5.129983

