%chk=mol_3112.chk
# wB97XD/Def2SVP opt freq pop=full gfinput

C 5 H 10 O 2

1 2
C    0.96091962  -1.08131957   0.66202974
C    2.09272933  -0.79177976  -0.31911987
C    2.71626902  -2.09556913  -0.80504972
O    1.60175931  -0.10676996  -1.47567940
C    1.33417952   1.27184951  -1.24685943
C    0.95020962   1.89792931  -2.56543899
O    1.29453945   3.02605891  -2.90788889
H    0.56395978  -0.15526995   1.08916962
H    1.30391955  -1.71056938   1.48922944
H    0.12614995  -1.58193934   0.15943994
H    2.87210894  -0.19239992   0.16697994
H    1.98326921  -2.70488882  -1.34538949
H    3.11590886  -2.68209887   0.02785999
H    3.53146863  -1.88869929  -1.50696945
H    2.22271919   1.77857935  -0.85732967
H    0.48948982   1.38987947  -0.56314981
H    0.24088992   1.31531942  -3.17878866

