%chk=mol_4922.chk
# wB97XD/Def2SVP opt pop=full gfinput

C 5 H 7 N 1 O 1

1 2
C    2.417602  -1.075330  -0.279037
C    5.242440  -0.747972  -0.269040
O    6.690084  -2.510256  -0.682569
N    6.037165   1.673730   0.210459
C    8.687808   2.298379   0.147323
C    9.051694   4.940803   0.892121
C    9.346548   7.108281   1.499252
H    1.452103   0.591182   0.469748
H    1.921719  -2.696261   0.902590
H    1.782654  -1.402800  -2.217253
H    4.767987   3.099793   0.266867
H    9.382736   1.968377  -1.773357
H    9.701060   1.017769   1.419411
H    9.616401   9.028412   2.039657

