%chk=mol_2327.chk
# wB97XD/Def2SVP opt pop=full gfinput

C 6 H 10 O 1

1 2
C    1.895849  -0.156885   0.227126
C    4.720668   0.012737   0.190277
C    5.950615   2.196240  -0.217186
C    8.771334   2.387707  -0.221703
C   10.016248  -0.083261   0.579503
C    8.482659  -2.316559  -0.378777
O    5.939523  -2.262909   0.548739
H    1.271616  -2.082989  -0.194869
H    1.052256   1.090334  -1.192455
H    1.166112   0.364396   2.091247
H    4.894485   3.928892  -0.530087
H    9.389822   2.900314  -2.131101
H    9.376198   3.910391   1.045472
H   11.959435  -0.169716  -0.127519
H   10.101587  -0.154920   2.649528
H    9.339102  -4.085418   0.268795
H    8.441539  -2.373685  -2.451107

