%chk=mol_6966.chk
# wB97XD/Def2SVP opt freq pop=full gfinput

C 5 H 10 N 2

1 2
C    2.41514897  -0.46189982  -1.59142947
C    2.45114923   0.06449997  -0.16323994
C    3.34673858   1.28919947  -0.01912999
C    3.52972889   1.72226942   1.43157947
N    3.53905869   3.17445874   1.29774952
N    2.82733893   3.58491874   0.21972992
C    2.72382903   2.54857898  -0.54686975
H    1.79116929  -1.35977948  -1.64583933
H    3.41928864  -0.72677970  -1.93716931
H    1.99777925   0.27864990  -2.28020906
H    2.81830907  -0.73478973   0.49172983
H    1.42654943   0.29763991   0.15188994
H    4.31054831   1.14660954  -0.52195978
H    4.46036816   1.34444952   1.86410928
H    2.68978882   1.40789938   2.06129932
H    3.26743865   3.66018867   2.15359902
H    2.24978900   2.57900906  -1.53774953

