%chk=mol_5678.chk
# wB97XD/Def2SVP opt pop=full gfinput

C 4 H 9 N 1 O 2

1 2
N    5.348379  -2.002108  -1.080886
C    4.152238   0.150422   0.154636
C    6.030097   2.280843   0.321820
O    8.216775   1.765099   1.880674
C    6.506649   3.955121  -1.926481
C    5.135841   4.989425   0.336655
O    6.560373   6.687476   1.911987
H    4.296878  -3.583412  -0.783178
H    7.061774  -2.306921  -0.248083
H    3.551910  -0.381044   2.063071
H    2.466074   0.704320  -0.909620
H    7.723557   1.676943   3.651253
H    5.425668   3.606769  -3.630976
H    8.429426   4.558832  -2.282033
H    3.129953   5.357543   0.130410
H    8.309844   6.118990   2.036993

