%chk=mol_5121.chk
# wB97XD/Def2SVP opt freq pop=full gfinput

C 4 H 10 N 2 O 1

1 2
C   -0.35551986  -1.12775958   0.54477978
N    0.88874966  -1.37878954   1.24635947
C    2.13400912  -1.39224946   0.48043981
C    2.38412929  -2.71930885  -0.25922990
N    2.48128915  -3.86357856   0.64932978
C    0.87166971  -1.78965938   2.56472898
O   -0.12918995  -1.94711924   3.25232863
H   -1.20273960  -1.08231962   1.23498952
H   -0.52910978  -1.93187928  -0.17557994
H   -0.27812991  -0.17245993   0.01715999
H    2.96774888  -1.20005965   1.16646945
H    2.10426927  -0.56362981  -0.23578991
H    3.31887865  -2.63986897  -0.82399970
H    1.58009934  -2.90667892  -0.97908962
H    1.58154941  -3.99157858   1.11649954
H    2.63207889  -4.71400833   0.10686996
H    1.88157928  -1.97078931   2.96992874

