%chk=mol_2766.chk
# wB97XD/Def2SVP opt pop=full gfinput

C 6 H 8 O 1

1 2
C    1.782938  -0.070751   0.013719
C    4.603600  -0.005235   0.017026
C    5.931888   2.150489   0.000000
C    8.588843   2.150489   0.000000
C   10.837919   2.150489   0.000000
C   13.566684   2.150489   0.000000
O   14.494558   4.670345  -0.078329
H    1.123461  -2.030435  -0.071923
H    1.019262   0.922772  -1.632289
H    1.023854   0.777018   1.741156
H    5.575354  -1.816197   0.034771
H    4.970414   3.964286  -0.011282
H   14.320892   1.136614  -1.636692
H   14.317340   1.250470   1.702662
H   13.612170   5.511915  -1.452765

