%chk=mol_4436.chk
# wB97XD/Def2SVP opt freq pop=full gfinput

C 4 H 8 N 2 O 1

1 2
C    0.85810965  -0.25285992  -0.06750998
C    2.33344913  -0.17738993   0.14676994
C    3.04935884   0.95370966   0.05091998
C    4.51764822   0.93536967   0.28236988
O    5.14149809  -0.08214997   0.56120980
N    5.09890842   2.18620920   0.14834996
N    6.49165773   2.33062911   0.33380988
H    0.63523978  -0.94210970  -0.88763970
H    0.42550984   0.72204977  -0.31354988
H    0.36861986  -0.62493974   0.83767968
H    2.83240891  -1.11367953   0.39516982
H    2.57961917   1.89760935  -0.19416992
H    4.55197811   3.00828886  -0.09238996
H    6.94500732   1.62021947  -0.25401992
H    6.70219755   2.00235915   1.28362954

