%chk=mol_5144.chk
# wB97XD/Def2SVP opt freq pop=full gfinput

C 4 H 8 N 2 O 1

1 2
C    2.64135909  -0.80474967  -1.03120959
N    2.36560917   0.02615999   0.14164996
C    2.96069884   1.38567948   0.00000000
C    2.43246913   2.28915906   1.13445950
O    2.59414911   1.69306934   2.42416906
C    4.40469837   1.38567948   0.00000000
N    5.55570793   1.38567948   0.00000000
H    2.12746930  -1.76410925  -0.92023969
H    3.71047878  -1.01409960  -1.14132965
H    2.27126932  -0.33576986  -1.94817924
H    2.79578900  -0.41814983   0.95695961
H    2.60620904   1.82648933  -0.94063967
H    1.36109948   2.48696899   0.99871963
H    2.94724894   3.25711870   1.14532959
H    1.95768929   0.95631963   2.46448922

