%chk=mol_0656.chk
# wB97XD/Def2SVP opt pop=full gfinput

C 4 H 8 O 2

1 2
C    1.750491  -0.024510   0.077082
C    4.612198   0.007049  -0.083280
O    5.363383   0.079917  -2.719221
C    5.942206   1.920982   1.673031
O    7.667110  -0.028875   2.557404
C    5.983081  -1.965429   1.575805
H    1.091903  -0.075778   2.038429
H    0.979048  -1.684275  -0.889759
H    0.947074   1.661693  -0.813130
H    7.203901   0.090801  -2.678498
H    4.819558   2.687644   3.230997
H    6.949638   3.452076   0.719192
H    7.020824  -3.425148   0.546433
H    4.876646  -2.832832   3.092121

