%chk=mol_4648.chk
# wB97XD/Def2SVP opt pop=full gfinput

C 4 H 10 N 2 O 1

1 2
C    1.782144  -0.128936  -0.239636
C    4.663579  -0.127878  -0.389208
C    5.552507  -1.615432  -2.728878
O    8.243250  -1.768670  -2.789557
N    5.577149   2.514602  -0.471732
N    8.116790   2.862349  -0.392061
C    8.781349   5.214189  -0.422184
H    1.123008   0.872335   1.448570
H    1.057283  -2.065206  -0.139481
H    0.935849   0.782479  -1.895546
H    5.428352  -1.019810   1.319104
H    4.916425  -0.716357  -4.482109
H    4.815627  -3.548150  -2.693087
H    8.789173  -0.107412  -2.152870
H    4.677186   3.522072   0.914174
H   10.802091   5.708050  -0.359653
H    7.428778   6.799197  -0.522434

