%chk=mol_1952.chk
# wB97XD/Def2SVP opt freq pop=full gfinput

C 5 H 10 N 2

1 2
N    0.93231964  -0.10309996   0.34067988
C    2.32046914   0.15318994  -0.05610998
C    2.97513890   1.16807950   0.90360969
N    4.17375851   0.28744990   0.95142967
C    3.28733897  -0.86640966   0.61347973
C    3.95816851  -1.81686938  -0.30759987
C    5.00185823  -2.54746914   0.10581996
H    0.53874981  -0.94603968  -0.07506997
H    0.29324991   0.65526980   0.10799996
H    2.47825909   0.35404986  -1.12140954
H    2.49809909   1.28891957   1.88436925
H    3.16013885   2.16150928   0.48375982
H    4.85432816   0.49065980   0.21993992
H    2.88870907  -1.36602950   1.50793946
H    3.57343864  -1.93272924  -1.31600952
H    5.39468813  -2.45441914   1.11476958
H    5.48691797  -3.25373864  -0.55968976

