%chk=mol_3884.chk
# wB97XD/Def2SVP opt freq pop=full gfinput

C 4 H 5 N 1 O 2

1 2
C    1.02471960   1.15890956  -0.28767991
O   -0.11120996   1.29666948   0.56003976
N   -1.28007948   0.85795969  -0.07690997
C   -1.40764952  -0.42890984  -0.08402997
O   -0.52585977  -1.41009951   0.26893988
C    0.87216967  -1.29049957   0.21386991
C    1.59118950  -0.20500992  -0.09633996
H    1.75725937   1.90411937   0.03892999
H    0.78284973   1.36091948  -1.33706951
H   -2.34816933  -0.89753968  -0.41075984
H    1.31126952  -2.26170921   0.40512985
H    2.67086911  -0.29505989  -0.16416994

