%chk=mol_6967.chk
# wB97XD/Def2SVP opt pop=full gfinput

C 5 H 6 N 2

1 2
C    5.067792  -2.199622   0.681983
C    4.182512   0.142580   0.315660
C    5.665191   2.381187   0.184664
C    4.719364   4.772088  -0.193036
N    6.757755   6.354034  -0.192469
N    8.969226   5.158102   0.159890
C    8.299696   2.732884   0.389869
H    3.779792  -3.795534   0.753623
H    7.063664  -2.601548   0.918331
H    2.147409   0.360257   0.097888
H    2.825537   5.485818  -0.457295
H    6.781736   8.257649  -0.420124
H    9.761494   1.336547   0.695967

