%chk=mol_6738.chk
# wB97XD/Def2SVP opt pop=full gfinput

C 5 H 8 N 2

1 2
C    1.958474   0.084074   0.035376
C    4.763811  -0.069769   0.032031
C    6.141005  -2.197903  -0.075249
C    8.755857  -1.281593  -0.057769
N   10.670017  -2.734282  -0.366739
N    8.861814   1.273090   0.253167
C    6.326028   2.308508   0.137005
H    1.091903  -1.792122  -0.075306
H    1.295445   1.187201  -1.583458
H    1.289209   0.993089   1.768292
H    5.577602  -4.143905  -0.195341
H   12.276833  -1.668968  -0.244833
H   10.243563   2.216214  -0.667810
H    6.066455   3.455553  -1.563333
H    5.918150   3.424448   1.827686

