%chk=mol_3308.chk
# wB97XD/Def2SVP opt freq pop=full gfinput

C 6 H 12 O 1

1 2
C    1.98303926  -0.48340982  -1.33919942
O    2.22778916   0.08069997  -0.05975998
C    3.05335879   1.26339948  -0.04449998
C    2.38131905   2.58638906  -0.48996982
C    3.17007875   3.29359865   0.62819976
C    3.23434877   1.92748928   1.35250950
C    4.52104855   1.61397934   2.08885932
H    1.35965955  -1.37285948  -1.21445954
H    2.92678881  -0.77515966  -1.80910933
H    1.45441949   0.23309991  -1.97442925
H    4.00994825   1.08171964  -0.55436975
H    1.29451954   2.60509896  -0.34956986
H    2.61426902   2.91638899  -1.50583947
H    4.14147854   3.68076873   0.29909989
H    2.63311911   4.08572817   1.15635955
H    2.36602902   1.76344931   2.00678921
H    5.39957809   1.77272928   1.45479953
H    4.52893829   0.57118976   2.42225909
H    4.62305832   2.25075936   2.97352886

