%chk=mol_5073.chk
# wB97XD/Def2SVP opt freq pop=full gfinput

C 5 H 13 N 1 O 1

1 2
C    2.87288880  -0.78466976   1.08720958
N    2.57457900   0.05237998  -0.06929997
C    3.04984903   1.45811939   0.02102999
C    2.56221914   2.14679933  -1.27149951
C    2.45659900   2.20908928   1.22392952
C    4.60008812   1.51968932   0.06666997
O    5.15959787   0.70352972  -0.96322960
H    2.49595904  -1.79463935   0.89767969
H    2.38581920  -0.42324984   1.99674928
H    3.94808841  -0.87653971   1.26227951
H    1.56233943   0.05516998  -0.21160991
H    2.93831873   1.64254940  -2.16845918
H    2.90261889   3.18855882  -1.31319952
H    1.46732950   2.15742922  -1.33121955
H    2.82850909   1.81455922   2.17575908
H    1.36319947   2.14302921   1.23468959
H    2.72283912   3.27106881   1.18958962
H    4.98941803   1.16196954   1.02509964
H    4.96239805   2.54253888  -0.07739998
H    4.51860857  -0.02984999  -1.06977963

