%chk=mol_4719.chk
# wB97XD/Def2SVP opt freq pop=full gfinput

C 4 H 12 N 2 O 1

1 2
C    0.90670967  -0.06661997   0.16695993
C    2.42160892   0.04561998  -0.07480998
N    3.07940888  -0.73966974   1.00060964
C    2.81172895  -0.55328977  -1.45732951
N    2.20444918   0.12325995  -2.60664916
C    2.88456893   1.52386940   0.02568999
O    2.69708896   2.03366923   1.35148954
H    0.34444988   0.57372981  -0.52086979
H    0.63138980   0.23399992   1.18459952
H    0.55807978  -1.09648955   0.02580999
H    2.94515896  -0.21609992   1.87286925
H    4.09041834  -0.70433974   0.85827971
H    2.53633904  -1.61475933  -1.49630952
H    3.90138841  -0.50747979  -1.57844937
H    1.20049953  -0.06068998  -2.61142898
H    2.55929899  -0.30461988  -3.46199870
H    2.34003901   2.17142916  -0.66952980
H    3.95285845   1.60930932  -0.20147993
H    1.74343932   2.18892932   1.46260941

