%chk=mol_3216.chk
# wB97XD/Def2SVP opt pop=full gfinput

C 6 H 10 O 1

1 2
C    5.164149   1.694026  -6.165647
C    5.474045   2.621995  -3.472561
O    7.823390   1.701113  -2.526186
C    8.341270   2.529493   0.000000
C   10.339032   0.751676   1.074347
C    9.252137   5.101750   0.000000
C   10.002906   7.221815   0.000000
H    3.370969   2.338083  -6.966097
H    5.225301  -0.372937  -6.238100
H    6.711041   2.384381  -7.354814
H    3.924716   1.904012  -2.302953
H    5.441448   4.690697  -3.446747
H    6.627345   2.346454   1.150824
H   12.071948   0.794838  -0.060830
H    9.656840  -1.202716   1.041466
H   10.827186   1.246180   3.023505
H   10.683548   9.116889  -0.012529

