%chk=mol_6236.chk
# wB97XD/Def2SVP opt freq pop=full gfinput

C 5 H 10 N 2

1 2
C    0.98925960   0.06485998  -0.03707998
C    2.51801896  -0.03148999   0.01476999
C    3.01200891  -0.01560999   1.45868945
C    3.03503895  -1.24280953  -0.75976974
C    3.43399858  -0.57537979  -2.03452921
N    3.45113873   0.71617973  -2.00931931
N    3.12728906   1.06884956  -0.74163973
H    0.61686975   0.06664997  -1.06828952
H    0.63225973   0.98153967   0.44613984
H    0.52858979  -0.78556973   0.47801980
H    4.10618830  -0.05685998   1.51096940
H    2.62270904  -0.87676972   2.01295924
H    2.69008899   0.89319968   1.97982931
H    2.27546906  -2.00322914  -0.95916969
H    3.92436862  -1.70922935  -0.32459989
H    3.70433855  -1.16912961  -2.91818881
H    2.59843898   1.94158924  -0.70135975

