%chk=mol_2159.chk
# wB97XD/Def2SVP opt pop=full gfinput

C 5 H 6 O 2

1 2
C    1.061799   2.336703   1.262583
C   -1.614847   1.438441   0.820576
C   -1.564863   0.013417  -1.624881
O    1.059324   0.019615  -2.484876
C    2.301875   0.005272  -0.020390
O    1.087972  -2.062636   1.349983
C   -1.543831  -1.384092   0.873016
H    1.450573   4.105014   0.267358
H    1.497457   2.470552   3.277692
H   -3.197190   2.536976   1.438384
H   -3.159376  -0.078046  -2.884724
H    4.359258  -0.110171  -0.098417
H   -3.122187  -2.511333   1.486307

