%chk=mol_1823.chk
# wB97XD/Def2SVP opt pop=full gfinput

C 5 H 8 N 2

1 2
C    1.712999   5.156723   2.596975
N    4.411679   5.212847   2.028734
C    5.149447   3.472353   0.510453
N    7.570715   3.111774  -0.290470
C    9.517587   4.972795   0.170170
C   11.930484   4.040594  -0.842950
C   13.897499   3.269850  -1.675488
H    1.425099   5.716346   4.567033
H    0.860222   3.284684   2.358416
H    0.709158   6.506969   1.394731
H    3.846462   2.063392  -0.314847
H    7.824373   2.046535  -1.859396
H    9.704556   5.328612   2.201399
H    9.019172   6.759645  -0.749900
H   15.642870   2.582046  -2.406018

