%chk=mol_6377.chk
# wB97XD/Def2SVP opt freq pop=full gfinput

C 4 H 6 N 2 O 1

1 2
O    2.10600924  -0.41368985   1.52694941
N    2.61585903   0.22643991   0.38558987
C    2.79991889  -0.64639980  -0.76550972
C    4.00787878  -1.47556949  -0.62079978
C    4.99954844  -2.14349937  -0.50537980
C    3.42620873   1.29281950   0.66325974
N    3.45120859   1.95406926   1.76896930
H    2.90787888  -0.76312971   1.96505928
H    2.86856890  -0.04018999  -1.67591941
H    1.91827929  -1.28738952  -0.88040972
H    5.88367748  -2.73085880  -0.40433985
H    4.10458851   1.56740940  -0.16254994
H    2.71396899   1.55168939   2.36237907

