%chk=mol_6559.chk
# wB97XD/Def2SVP opt pop=full gfinput

C 3 H 8 O 3 S 1

1 2
C    1.844562   0.002967  -0.069806
C    4.725733   0.011130  -0.023244
C    5.808319  -1.545872  -2.193178
S    5.955963   3.191558  -0.039080
O    4.897584   4.113896  -2.746547
O    4.725147   4.675579   1.894450
O    8.674958   3.134092  -0.296366
H    1.071702   1.065201   1.528562
H    1.115997  -1.930317   0.047489
H    1.109515   0.858087  -1.804764
H    5.368145  -0.804853   1.770050
H    5.266875  -0.767834  -4.032392
H    5.130058  -3.498658  -2.101867
H    7.875018  -1.593285  -2.116323
H    6.331849   4.774072  -3.718943

