%chk=mol_4401.chk
# wB97XD/Def2SVP opt pop=full gfinput

C 5 H 5 N 1 O 1

1 2
C    1.844902  -0.000454   0.117144
C    4.672612  -0.114782  -0.051287
C    5.965998  -2.280540   0.238578
C    5.971553   2.362384  -0.567787
O    4.708574   4.296973  -0.819820
C    8.711562   2.528321  -0.778662
N   10.904400   2.592024  -0.935414
H    1.259484   1.264699   1.646405
H    1.018222  -1.860039   0.495222
H    1.039368   0.690468  -1.659293
H    4.986553  -4.048474   0.610684
H    8.012042  -2.406585   0.124212

