%chk=mol_5355.chk
# wB97XD/Def2SVP opt freq pop=full gfinput

C 4 H 8 N 2 O 1

1 2
C    1.36464953   0.21928991  -0.65722978
O    2.74660897   0.32596987  -0.33933988
C    3.23601866   1.57805943  -0.04262998
C    2.54540896   2.73066878  -0.03030999
C    4.69369793   1.62870932   0.30077988
N    5.35292816   2.70923877   0.58808982
N    6.66066790   2.48521924   0.85644972
H    1.14575958  -0.83387971  -0.85724968
H    1.12496960   0.78992969  -1.56048942
H    0.74195969   0.53804982   0.18506993
H    1.49080944   2.79097915  -0.26311991
H    3.02978897   3.67030859   0.22226992
H    5.18955851   0.63907975   0.29356989
H    7.08433723   3.34802890   1.20662951
H    7.17486715   2.26839924  -0.00116000

