%chk=mol_3067.chk
# wB97XD/Def2SVP opt pop=full gfinput

C 6 H 10 O 1

1 2
C    1.798131   0.176519  -0.091066
C    4.568281  -0.489590  -0.214956
C    5.081984  -3.168334  -1.024666
O    4.158796  -4.847431   0.851926
C    6.322948   1.270784   0.337675
C    9.033685   0.958242   0.304775
C   10.629898   2.840202   0.863643
H    1.485363   2.149469   0.450473
H    0.826188  -1.009511   1.298752
H    0.908920  -0.110133  -1.938198
H    7.081579  -3.583809  -1.319671
H    4.110003  -3.579255  -2.804826
H    4.853497  -4.269231   2.454981
H    5.670048   3.150495   0.878080
H    9.830885  -0.866477  -0.188859
H    9.979266   4.717097   1.373718
H   12.658443   2.532819   0.816173

