%chk=mol_3279.chk
# wB97XD/Def2SVP opt pop=full gfinput

C 5 H 6 O 2

1 2
C    4.322390  -1.390933   2.692898
C    4.650975  -0.163820   0.141654
O    3.893837  -1.224694  -1.792122
C    6.090776   2.354089   0.050116
O    5.424685   3.996336   2.071915
C    8.837248   1.917845   0.075249
C   11.080484   1.570041   0.104672
H    3.272136  -0.134530   3.949906
H    6.170504  -1.832392   3.500793
H    3.251557  -3.146281   2.482401
H    5.536520   3.310441  -1.699223
H    6.473805   3.554480   3.514324
H   13.071802   1.264038   0.112382

