%chk=mol_1840.chk
# wB97XD/Def2SVP opt pop=full gfinput

C 4 H 7 N 3

1 2
C    1.952219  -0.548720  -0.641978
N    4.360751   0.080011   0.473754
C    5.585369   2.353484   0.127538
N    4.860375   4.627580  -0.238181
C    2.195219   5.248412  -0.219737
C    8.352495   2.256409   0.191335
N   10.537963   2.023065   0.247913
H    1.612295  -2.580534  -0.452816
H    1.923136  -0.086058  -2.657087
H    0.401888   0.420691   0.317323
H    5.540299  -1.436551   0.578729
H    1.986650   7.306399  -0.176784
H    1.240076   4.517050   1.462591
H    1.250904   4.575915  -1.931187

