%chk=mol_6188.chk
# wB97XD/Def2SVP opt freq pop=full gfinput

C 5 H 7 N 1 O 1

1 2
O    1.17415953  -0.53067982   0.02478999
C    2.37475920  -0.29282990  -0.00435000
C    2.87815905   1.09285951  -0.03171999
C    4.19523859   1.33833957  -0.07720996
C    4.80377817   2.66749907  -0.10500996
C    4.99740791   3.41557860   1.18898952
N    6.12216759   2.78872895   0.50610977
H    3.13343883  -1.09266961  -0.01315999
H    2.13315940   1.87898934  -0.00964000
H    4.89363813   0.50255984  -0.09915996
H    4.64446831   3.24135876  -1.01246965
H    4.69134855   2.95278907   2.11935925
H    4.95842838   4.49751806   1.17324948
H    6.68530750   3.48595858   0.01593999

