%chk=mol_3414.chk
# wB97XD/Def2SVP opt pop=full gfinput

C 5 H 12 O 2

1 2
C    5.975976  -0.877683  -1.752834
O    7.924869   0.871636  -1.157816
C    7.015552   2.877278   0.395709
C    9.205215   4.674483   0.917160
C    8.397924   6.874295   2.592194
C   10.582088   8.670253   3.109979
O    9.703196  10.663895   4.678452
H    6.783399  -2.382850  -2.916131
H    4.472982   0.052629  -2.827200
H    5.203021  -1.718687  -0.028233
H    6.287894   2.100279   2.171976
H    5.487954   3.875696  -0.583132
H    9.957175   5.379559  -0.882918
H   10.757965   3.625364   1.807107
H    7.648685   6.167461   4.391006
H    6.844550   7.919729   1.703342
H   11.302811   9.485234   1.350663
H   12.125409   7.696987   4.084681
H   11.132055  11.778890   4.982679

