%chk=mol_6428.chk
# wB97XD/Def2SVP opt freq pop=full gfinput

C 4 H 6 N 2 S 1

1 2
C    1.01539958   0.01948999   0.01752999
C    2.51042914  -0.00492000   0.07232998
C    3.27062869   1.10173965   0.01677999
C    4.68971825   0.71990973   0.01687999
N    5.71654797   1.48712945  -0.01458999
S    4.80727863  -1.03139961   0.03970999
N    3.15295887  -1.22512960   0.18834993
H    0.62645978   1.04215956  -0.02884999
H    0.59339982  -0.45957983   0.90706962
H    0.65825981  -0.51698983  -0.86744964
H    2.93470907   2.12002921  -0.06200998
H    5.42552805   2.46737909  -0.02698999
H    2.68628907  -2.01793933  -0.24723992

