%chk=mol_6791.chk
# wB97XD/Def2SVP opt pop=full gfinput

C 6 H 11 N 1

1 2
C    1.765458   0.034601  -0.171568
C    4.613124  -0.089044   0.316605
C    5.975030   2.319922  -0.635326
N    6.414600   2.276874  -3.372330
C    8.033490   0.142202  -4.072927
C    7.270381  -2.306940  -2.861650
C    5.693840  -2.440959  -0.879271
H    0.936416   1.685522   0.763090
H    0.815379  -1.646745   0.578483
H    1.332257   0.159455  -2.191818
H    4.910491  -0.211574   2.364652
H    4.851532   3.995316  -0.162630
H    7.788204   2.534349   0.349769
H    7.276731   3.910354  -3.910562
H   10.003435   0.548569  -3.572697
H    7.957901  -0.074871  -6.129535
H    8.048910  -4.027365  -3.663177
H    5.168855  -4.262599  -0.093938

