%chk=mol_2196.chk
# wB97XD/Def2SVP opt freq pop=full gfinput

C 6 H 12 O 1

1 2
C   -1.53158939   0.75885969   0.11302996
C   -1.53611946  -0.75332975  -0.08226997
C   -0.28718987  -1.46908951   0.42888984
C    0.94267964  -1.15097952  -0.41505986
O    1.67696929  -0.00125000  -0.02011999
C    0.95480961   1.15134954   0.38895983
C   -0.29262990   1.47144949  -0.42702985
H   -2.41897917   1.17197955  -0.38326988
H   -1.64681947   0.98523962   1.18100965
H   -1.67668939  -0.97901964  -1.14693964
H   -2.41247916  -1.16373956   0.43464983
H   -0.11556996  -1.23484957   1.48490942
H   -0.47948983  -2.54649901   0.35942987
H    1.64364934  -1.99023926  -0.34003988
H    0.68973976  -1.06176960  -1.47807944
H    0.72607976   1.06468952   1.45751953
H    1.65633941   1.98826933   0.29639986
H   -0.48127982   2.54940891  -0.35443988
H   -0.14619994   1.23580956  -1.48656940

