%chk=mol_6342.chk
# wB97XD/Def2SVP opt pop=full gfinput

C 4 H 7 N 1 O 2

1 2
O    2.147844   0.179562   1.087500
N    4.395106   0.043256  -0.298407
C    5.580305   2.187963  -0.244020
C    4.772050   4.535570   1.084268
C    6.381983   6.404377  -0.358594
O    8.702038   5.120988  -0.924624
C    8.061609   2.557763  -1.568775
H    1.450818  -1.515466   0.882200
H    5.350155   4.398904   3.064777
H    2.755618   4.936683   0.936095
H    5.488596   6.959691  -2.144801
H    6.780848   8.110667   0.736351
H    7.839170   2.380186  -3.613988
H    9.511162   1.277228  -0.851492

