%chk=mol_3165.chk
# wB97XD/Def2SVP opt freq pop=full gfinput

C 7 H 14

1 2
C    0.97031963   0.00738000   0.01900999
C    2.50114918   0.00061000  -0.00032000
C    2.98426890   0.11636996  -1.45634937
C    3.07340884   1.13078964   0.86704969
C    4.48174858   0.66324973   1.20266962
C    4.35217810  -0.84409970   1.38672948
C    3.07147884  -1.26700950   0.66241980
H    0.58320975  -0.07317997   1.04093969
H    0.56515974  -0.83271968  -0.55567980
H    0.57547981   0.93446964  -0.41193983
H    4.07526827   0.07413998  -1.53424942
H    2.65477896   1.06036961  -1.90391922
H    2.58224916  -0.70004976  -2.06690931
H    2.49734902   1.24010944   1.79456937
H    3.07619882   2.10073924   0.35964987
H    5.16664791   0.88413966   0.37551984
H    4.87776804   1.15514958   2.09660912
H    5.23083830  -1.36608958   0.99546963
H    4.27386808  -1.09131956   2.45182920
H    3.27239895  -2.06212926  -0.06428998
H    2.36909914  -1.68047941   1.39717948

