%chk=mol_2818.chk
# wB97XD/Def2SVP opt freq pop=full gfinput

C 6 H 10 O 1

1 2
C    0.99999964   0.00000000   0.00000000
C    2.44399905   0.00000000   0.00000000
C    3.63415861   0.00000000   0.00000000
C    5.07815790   0.00000000   0.00000000
C    5.62229776  -0.65836972   1.26635957
C    5.62260771  -0.70341974  -1.24284959
O    5.54765749   1.34829950  -0.01634999
H    0.60598981   1.02086961   0.01166000
H    0.60600978  -0.52054983   0.87826967
H    0.60601974  -0.50033981  -0.88992965
H    5.27815771  -0.12941995   2.16336918
H    6.71752739  -0.62197977   1.28693950
H    5.30821800  -1.70470941   1.34896946
H    5.27623796  -0.20940992  -2.15902925
H    5.31103802  -1.75308931  -1.28647947
H    6.71790743  -0.66483974  -1.26598942
H    5.06060791   1.80649936  -0.72230971

