%chk=mol_2129.chk
# wB97XD/Def2SVP opt pop=full gfinput

C 4 H 5 N 3

1 2
N    1.901839  -0.279509   0.438398
C    4.462853  -0.114291   0.100326
N    5.709978  -2.197544  -0.216789
C    5.872891   2.350347   0.067274
C    4.766664   4.453272   0.965556
C    8.393143   2.432682  -0.891025
N   10.431062   2.658334  -1.673069
H    0.871504   1.249128  -0.085359
H    1.082076  -1.912649  -0.130259
H    4.530259  -3.718508  -0.084168
H    2.886708   4.457410   1.776928
H    5.766518   6.248455   0.970507

