%chk=mol_1416.chk
# wB97XD/Def2SVP opt freq pop=full gfinput

C 5 H 10 N 2

1 2
C    0.92005962  -0.26804990   0.18379994
C    2.39733911  -0.32218987  -0.21791992
C    2.61315894  -1.46275938  -1.21444952
N    2.76252890   0.99016964  -0.77226973
C    4.19210863   1.14584959  -1.09611952
C    5.10165834   1.08788967   0.06801998
N    5.80747747   1.04295957   0.98798960
H    0.74271971   0.51232982   0.93238962
H    0.60218978  -1.22091961   0.62115979
H    0.27587989  -0.06317998  -0.67907977
H    2.97709894  -0.52568978   0.69027972
H    2.10499930  -1.26565957  -2.16486931
H    2.22009921  -2.40419912  -0.81480968
H    3.67598867  -1.62205946  -1.42138946
H    2.50282907   1.71785939  -0.10403997
H    4.30821800   2.12753916  -1.57082939
H    4.49807835   0.41907984  -1.85551929

