%chk=mol_4005.chk
# wB97XD/Def2SVP opt freq pop=full gfinput

C 5 H 11 N 1 O 1

1 2
C    0.86523968  -0.12522995   0.18752992
C    2.36872911  -0.00082000  -0.04331998
C    2.77895904  -0.02644999  -1.51537943
N    2.23334908   1.11238968  -2.25238919
C    3.06125879   1.08176959   0.80543971
O    3.74257851   0.08947997   1.60814941
C    3.18542886  -0.98347962   0.81798971
H    0.62560976  -0.18259993   1.25550950
H    0.47013983  -1.02858961  -0.28968987
H    0.32631987   0.73756969  -0.21780992
H    2.44351912  -0.95612967  -1.98928916
H    3.87123847   0.00164000  -1.60851943
H    1.22360957   1.00891960  -2.35127926
H    2.60280919   1.10364962  -3.20361900
H    2.40349913   1.70384932   1.42040956
H    3.77799845   1.72492933   0.28502989
H    3.97286844  -1.54395950   0.30366990
H    2.61009884  -1.67540944   1.44165945

