%chk=mol_5016.chk
# wB97XD/Def2SVP opt pop=full gfinput

C 5 H 11 N 1 O 1

1 2
C    4.091899  -1.466295  -2.550280
N    3.440776   0.625046  -0.879649
C    5.681348   1.998858   0.120697
C    7.124570   0.629543   2.172146
C    7.144242   3.689860  -1.657403
C    5.485818   4.864986   0.313562
O    6.798800   6.077246   2.355770
H    5.157554  -0.819763  -4.200256
H    2.357490  -2.366277  -3.227652
H    5.188961  -2.914203  -1.564561
H    2.257467   1.823397  -1.813041
H    8.770124   1.700319   2.827049
H    7.825450  -1.193362   1.490503
H    5.897363   0.286482   3.802923
H    6.543517   3.827924  -3.609263
H    9.174318   3.818116  -1.415480
H    3.735705   5.734979  -0.308252
H    7.092104   7.853437   1.989031

