%chk=mol_3380.chk
# wB97XD/Def2SVP opt pop=full gfinput

C 6 H 12 O 1

1 2
C    2.785929  -0.200349  -1.479107
O    4.469429   0.244512   0.578162
C    5.774871   2.501506   0.296687
C    4.179111   4.846826   0.489987
C    8.318329   2.473576   0.102518
C    9.821455   0.051174   0.116161
C    9.930549   4.802172  -0.174535
H    2.064167  -2.129665  -1.303457
H    3.765676  -0.040270  -3.295890
H    1.173747   1.093755  -1.411380
H    2.538431   4.503425   1.705459
H    3.497373   5.410891  -1.379009
H    5.200980   6.432609   1.333391
H    8.651903  -1.637845   0.345366
H   11.186083   0.073151   1.671992
H   10.860539  -0.151991  -1.662052
H    8.839799   6.517193  -0.538893
H   11.231380   4.581509  -1.770069
H   11.049437   5.100919   1.539749

