%chk=mol_0514.chk
# wB97XD/Def2SVP opt freq pop=full gfinput

C 4 H 6 N 2

1 2
C    0.99312961  -0.06801998  -0.01162999
N    2.43066931  -0.03103999  -0.26479989
N    2.99102879   1.20511961  -0.20871992
C    4.20163870   1.23597956  -0.64691979
C    4.78054810   2.54782915  -0.56808978
C    5.26899815   3.64251852  -0.50449979
H    0.62655979  -1.09412956  -0.10959996
H    0.45620984   0.55240977  -0.73606974
H    0.76371974   0.28641990   0.99819964
H    2.88449883  -0.66651976   0.39719984
H    4.78363800   0.39166984  -1.04910958
H    5.69079781   4.61930847  -0.44478983

