%chk=mol_5240.chk
# wB97XD/Def2SVP opt pop=full gfinput

C 4 H 8 N 2 O 1

1 2
C    2.688268  -0.814283  -1.544114
N    5.315195  -0.365605  -0.841835
N    5.987541   2.092815  -0.625707
C    8.356558   2.406869  -0.097699
C    9.405545   5.014993   0.222912
C   10.597414   5.422210   2.759076
O   11.209874   3.712272   4.201220
H    2.349780  -2.845153  -1.727342
H    2.256654   0.070147  -3.363164
H    1.399909  -0.063438  -0.111229
H    5.698658  -1.350776   0.779323
H    9.691763   0.810655   0.099759
H    7.897147   6.409025  -0.018330
H   10.848937   5.333809  -1.222483
H   11.013551   7.408936   3.236080

