%chk=mol_2511.chk
# wB97XD/Def2SVP opt freq pop=full gfinput

C 6 H 10 O 1

1 2
C    0.96347964  -0.21893992  -0.09690996
C    2.43992901  -0.05440998  -0.06719998
O    3.10378885  -0.39329985  -1.29046953
C    3.11758876   0.99318957  -0.91378963
C    4.46640825   1.52956939  -0.54532981
C    4.43917799   2.46407914   0.63276976
C    5.10810804   2.25234914   1.77295935
H    0.49176982   0.48130983   0.60004979
H    0.69101977  -1.23581946   0.20429993
H    0.54874980  -0.03752999  -1.09475958
H    2.88977885  -0.35327986   0.86897963
H    2.51609898   1.68575943  -1.48679936
H    4.86976814   2.07549930  -1.40675950
H    5.16290808   0.70187974  -0.35680988
H    3.83517861   3.36288857   0.53332984
H    5.72644806   1.37126946   1.91730928
H    5.05122805   2.96253872   2.59280896

