%chk=mol_6947.chk
# wB97XD/Def2SVP opt freq pop=full gfinput

C 5 H 12 N 2

1 2
C    2.99425888  -1.06087959  -0.66010976
C    2.40965915   0.14421995   0.05859998
C    3.36929893   1.29588950   0.07247997
C    3.48272872   2.29441905  -1.05300963
N    2.67171907   2.18072939  -2.26388907
C    2.84393883   2.69565892   0.25773990
N    3.53647876   3.60604858   1.17020953
H    2.28734899  -1.89645934  -0.64056981
H    3.92448854  -1.38930941  -0.18381993
H    3.21939874  -0.82789969  -1.70607936
H    2.18332934  -0.13389994   1.09404957
H    1.45727944   0.41874984  -0.40755984
H    4.28908825   1.03130960   0.58592975
H    4.48203802   2.68040895  -1.24645948
H    1.69154942   2.00577927  -2.05077910
H    2.98659897   1.40189946  -2.83915901
H    1.76477933   2.82964873   0.25256991
H    4.54871798   3.53299880   1.07802951
H    3.32007885   3.37782860   2.13965917

