%chk=mol_2149.chk
# wB97XD/Def2SVP opt freq pop=full gfinput

C 5 H 10 N 2

1 2
N    0.62907976   1.11305952  -0.92526966
N    1.95441926   0.96811968  -1.14201963
C    2.66810918   1.23768950  -0.09529997
C    4.16718864   1.12797952  -0.14237995
C    4.78652811   2.50556922   0.05640998
C    6.28699732   2.44059920   0.01491999
C    7.08358765   2.77238917   1.03884959
H    0.14219995   1.10642958  -1.82587934
H    0.25564989   0.29679990  -0.43276983
H    2.21950912   1.56155944   0.86270964
H    4.47307825   0.69286972  -1.10044956
H    4.47528839   0.44673982   0.65892977
H    4.44271851   2.93604875   1.00480962
H    4.44398832   3.18747878  -0.73232973
H    6.73929787   2.10993934  -0.91899967
H    6.68457747   3.11534882   1.98805916
H    8.16356659   2.70906901   0.94344962

