%chk=mol_1029.chk
# wB97XD/Def2SVP opt pop=full gfinput

C 4 H 9 N 1 O 1

1 2
C    1.309429  -0.557356   0.472394
C    3.945880  -1.623086   0.136268
O    5.611769   0.398449  -0.504632
N    8.049950  -0.593733  -0.821124
C    9.560219   1.227396  -1.419222
C   12.305160   0.741661  -1.883868
H   -0.031766  -2.049465   0.968466
H    0.669379   0.365265  -1.265928
H    1.288529   0.881406   1.959741
H    3.952797  -3.032292  -1.380634
H    4.581471  -2.512259   1.894734
H    8.899495   3.197454  -1.615262
H   12.758996  -1.255402  -1.621215
H   13.418265   1.886041  -0.573475
H   12.766196   1.311054  -3.815036

