%chk=mol_2913.chk
# wB97XD/Def2SVP opt freq pop=full gfinput

C 6 H 10 O 1

1 2
C    0.64264977  -0.13581996   0.38272986
C    2.13290930  -0.03650999   0.36395988
C    2.80850911   1.06170964  -0.01081000
C    4.30334806   1.17257965  -0.02106999
O    4.66290808   2.21833920   0.88093966
C    5.99329805   2.45355916   1.07513964
C    7.04838753   1.84650934   0.51956981
H    0.31885988  -0.98720962  -0.22423992
H    0.16176994   0.76542974  -0.01124000
H    0.29247987  -0.29150990   1.40809953
H    2.67599893  -0.91972965   0.69284976
H    2.26777935   1.95072937  -0.32617989
H    4.63429832   1.42412949  -1.03560960
H    4.76386833   0.22734992   0.29049990
H    6.11007786   3.25656891   1.79611933
H    6.96147728   1.04536963  -0.20156993
H    8.05388737   2.15605903   0.79196966

