%chk=mol_2793.chk
# wB97XD/Def2SVP opt pop=full gfinput

C 6 H 14 O 1

1 2
C    1.749660  -0.119676  -0.036944
C    4.653413  -0.236461  -0.017915
C    5.507229  -1.672408   2.367695
C    5.568210  -1.702020  -2.354995
C    5.816426   2.450635   0.064648
C    5.164716   4.174613  -2.155006
O    6.383041   6.550887  -1.830899
H    1.028389   0.733743  -1.777684
H    1.037894   0.988535   1.559742
H    0.929122  -2.016092   0.098946
H    4.875720  -0.707154   4.086760
H    7.570205  -1.825230   2.449425
H    4.733329  -3.592313   2.405527
H    4.875380  -0.855592  -4.110570
H    4.895165  -3.659984  -2.313913
H    7.635665  -1.750434  -2.442244
H    7.883881   2.308811   0.192960
H    5.239322   3.398332   1.819731
H    3.132051   4.517712  -2.296660
H    5.825119   3.384103  -3.945370
H    5.759980   7.283231  -0.264656

