%chk=mol_5261.chk
# wB97XD/Def2SVP opt freq pop=full gfinput

C 4 H 7 N 1 O 2

1 2
C    2.80371904   0.79377973   2.05398917
N    3.68790865   1.57099938   1.52661943
O    3.90406847   1.17216957   0.20032991
C    4.95887804   1.95961916  -0.36126986
C    4.51060867   3.38804889  -0.61691976
C    3.41913891   3.39286876  -1.64821935
O    3.50408864   3.99800849  -2.71242905
H    2.49171901   0.94589961   3.09941888
H    2.32920909  -0.03689998   1.50470948
H    5.25438833   1.47749949  -1.29946959
H    5.82660770   1.93700933   0.30823988
H    5.34885788   3.98856854  -0.98490959
H    4.11218834   3.86076856   0.28604987
H    2.50077915   2.84036875  -1.38457954

