%chk=mol_7079.chk
# wB97XD/Def2SVP opt freq pop=full gfinput

C 6 H 3 N 1

1 2
C    0.82591969   0.00085000   0.00000000
C    2.02590919  -0.00003000   0.00000000
C    3.55815864   0.00000000   0.00000000
C    4.74831820   0.00000000   0.00000000
C    6.19231749   0.00000000   0.00000000
C    6.67433739   1.36116946   0.00000000
N    7.05854702   2.44615912   0.00000000
H   -0.23879990   0.00434000   0.00000000
H    6.57049751  -0.53383976  -0.87862968
H    6.57049751  -0.53383976   0.87862968

