%chk=mol_0474.chk
# wB97XD/Def2SVP opt freq pop=full gfinput

C 5 H 11 N 1

1 2
C    1.11297953   0.09760997  -0.55407977
N    2.56543899   0.00951000  -0.51192981
C    3.12309861   1.01854968   0.38198984
C    4.61106825   0.84810966   0.37371984
C    5.46438789   1.54394937  -0.65786976
C    5.50848770   1.99005914   0.77780974
H    0.71937972  -0.68026978  -1.21580946
H    0.78023970   1.06722963  -0.93899965
H    0.67667979  -0.06281998   0.43734986
H    2.93961883   0.15611994  -1.44855940
H    2.75647902   0.87343967   1.40428948
H    2.84212899   2.02685928   0.05519998
H    4.90674782  -0.14600994   0.69421977
H    4.98451805   2.19811916  -1.37639952
H    6.31937742   1.00523961  -1.05017960
H    6.39515781   1.75421929   1.35575950
H    5.05819798   2.94364882   1.02794957

