%chk=mol_2080.chk
# wB97XD/Def2SVP opt pop=full gfinput

C 5 H 6 N 2

1 2
N    3.330680  -1.319936   0.234364
C    4.426967   0.721611  -0.514535
C    4.066917   1.062669  -3.197776
C    3.761046   1.336792  -5.432301
N    5.759262   2.364671   1.001082
C    8.003802   3.630769  -0.031199
C    5.638980   5.086746   0.469597
H    3.654315  -1.451707   2.139435
H    3.468479   1.544511  -7.411638
H    8.511780   3.151232  -1.950122
H    9.533801   3.748045   1.318008
H    5.522536   6.217539   2.167459
H    4.447981   5.653267  -1.089522

