%chk=mol_6994.chk
# wB97XD/Def2SVP opt freq pop=full gfinput

C 5 H 6 N 2

1 2
C    3.07522893  -1.15157962   0.38258988
C    2.44608927  -0.00359000   0.10198996
C    3.05319881   1.27474952   0.03341999
N    2.47356915   2.44334912  -0.16155992
C    3.47627878   3.37735891  -0.15264994
C    4.69363785   2.77650881   0.04530998
N    4.41300821   1.44213939   0.15981993
H    2.50564909  -2.07704926   0.41357982
H    4.13361835  -1.23403955   0.59457976
H    1.37447953  -0.02354999  -0.08469997
H    3.26559877   4.42985868  -0.29086989
H    5.69955826   3.16465878   0.11101996
H    5.08806801   0.70762974   0.30564991

