%chk=mol_1900.chk
# wB97XD/Def2SVP opt pop=full gfinput

C 6 H 11 N 1

1 2
N    1.871509   0.081202   0.033562
C    4.617149   0.001965   0.037700
C    5.686696  -2.120084   1.709994
C    7.276353  -0.527234   3.525095
C    8.583967   1.499649   1.826685
C    5.763438   2.276742   1.410624
C    5.522441   1.712035   4.305079
H    1.179756  -1.531906  -0.761786
H    1.268082   1.534193  -1.076123
H    5.321223  -0.145282  -1.903559
H    6.845004  -3.439963   0.615484
H    4.232892  -3.197284   2.713382
H    8.385905  -1.466068   4.981942
H    9.616533   0.804192   0.174705
H    9.771471   2.881322   2.813065
H    5.374419   4.182209   0.733327
H    6.356264   3.119938   5.575523
H    3.645357   1.217683   5.016335

