%chk=mol_2360.chk
# wB97XD/Def2SVP opt pop=full gfinput

C 6 H 12 O 1

1 2
C    1.879446   0.014060  -0.014797
C    4.750016   0.000813   0.074720
C    5.830637   2.128531   1.696048
C    8.503163   1.236675   2.234677
C    8.222141  -1.599597   2.672488
O   10.386256  -2.922650   1.809923
C    5.839008  -2.415580   1.244271
H    1.178547  -1.536177  -1.189961
H    1.179775   1.792670  -0.809445
H    1.065314  -0.200084   1.874816
H    5.484137   0.193262  -1.858395
H    4.770123   2.334851   3.465663
H    5.805938   3.949528   0.711917
H    9.749041   1.627980   0.624441
H    9.315821   2.188794   3.883331
H    7.999588  -1.999859   4.692114
H   10.560885  -2.611053   0.007842
H    6.222396  -3.839451  -0.210100
H    4.496811  -3.251349   2.583312

