%chk=mol_6228.chk
# wB97XD/Def2SVP opt pop=full gfinput

C 5 H 5 N 1 O 1

1 2
O    1.871660   0.030897   0.039023
C    4.573137   0.000000   0.000000
C    5.418563  -1.472456  -2.336023
C    8.116582  -2.094232  -2.212699
N   10.245264  -2.604062  -2.103246
C    5.484023   2.572238   0.000000
C    6.234774   4.692322   0.000000
H    1.373018   1.141451   1.418976
H    5.185956  -0.981599   1.718876
H    5.004184  -0.404156  -4.064253
H    4.320046  -3.225044  -2.481210
H    6.915604   6.588927  -0.005253

