%chk=mol_5298.chk
# wB97XD/Def2SVP opt pop=full gfinput

C 4 H 5 N 1 O 2

1 2
C    5.807903  -2.142968   1.028805
O    4.380820   0.088723   0.565387
C    5.807866   2.188511   0.291925
C    4.788698   4.521680  -0.164803
O    6.674475   6.250817  -0.348295
N    8.986706   5.058967  -0.009845
C    8.430541   2.624187   0.371709
H    4.481656  -3.716713   1.218798
H    6.873765  -1.991412   2.796511
H    7.070448  -2.561958  -0.556827
H    2.893530   5.236904  -0.397693
H    9.961521   1.313057   0.684610

