%chk=mol_6678.chk
# wB97XD/Def2SVP opt freq pop=full gfinput

C 7 H 8

1 2
C   -1.48073936   0.82774967   0.52729982
C   -1.16114962  -0.41076985  -0.26665989
C   -0.23982990  -1.41569948   0.29747990
C    1.08082950  -1.20634961   0.45214984
C    1.67147934   0.06601997   0.08528997
C    0.90895963   1.05775964  -0.41038987
C   -0.54190975   0.92685968  -0.64570975
H   -2.47144890   1.25379944   0.41725984
H   -1.07770956   0.92465967   1.52966940
H   -1.92812932  -0.80623972  -0.92320961
H   -0.66414976  -2.37184906   0.59138978
H    1.72678936  -1.97208929   0.86806971
H    2.73760891   0.19919991   0.23696992
H    1.37186944   2.00630927  -0.66699976
H   -0.90681964   1.40672946  -1.54702950

