%chk=mol_1713.chk
# wB97XD/Def2SVP opt freq pop=full gfinput

C 5 H 12 N 2

1 2
C    1.34404957   0.33273986  -0.13564995
N    2.62931895   0.83195972   0.33744988
C    3.48908854   1.19272947  -0.79151970
C    4.76325846   1.76140940  -0.24311991
C    5.96151781   0.87200963   0.01071000
N    5.94697809   1.81132925  -1.10587955
C    6.76215744   3.00214887  -0.87906969
H    0.70595974   0.10084996   0.72216976
H    1.46239948  -0.58157980  -0.72544974
H    0.82357973   1.08359969  -0.73883975
H    3.08844876   0.10179996   0.88093966
H    3.00466871   1.95645928  -1.40968943
H    3.68498874   0.31642985  -1.42063951
H    4.58696842   2.60287905   0.41847986
H    5.89963770  -0.17558993  -0.25993991
H    6.59235764   1.08533955   0.86523968
H    6.32894754   3.85265851  -1.41510940
H    7.76818705   2.83613896  -1.27725947
H    6.86317778   3.28644872   0.17550994

