%chk=mol_4625.chk
# wB97XD/Def2SVP opt freq pop=full gfinput

C 5 H 11 N 1 O 1

1 2
C    1.19742954   0.31272987   0.39478984
C    2.41410923   0.13034995  -0.49872980
C    3.66148853  -0.24834991   0.28645989
O    3.62687850  -0.38516986   1.50934947
N    4.83123827  -0.43651983  -0.44729984
C    4.98622847  -0.07674997  -1.84859931
C    6.06122732  -0.69004971   0.28564990
H    0.32223988   0.58215976  -0.20449993
H    1.36538947   1.10609961   1.13063955
H    0.96784961  -0.60861981   0.94017965
H    2.60165906   1.06878960  -1.03122962
H    2.20256901  -0.66193980  -1.22472954
H    4.03949833  -0.09743997  -2.38983917
H    5.66940784  -0.78407973  -2.32779908
H    5.40562820   0.93199962  -1.90295923
H    5.86471796  -1.14716959   1.25900948
H    6.57821751   0.26188990   0.43763983
H    6.69662762  -1.36572945  -0.29394990

