%chk=mol_4675.chk
# wB97XD/Def2SVP opt freq pop=full gfinput

C 5 H 7 N 1 O 1

1 2
C    0.97788960  -0.42475984  -0.23347990
C    2.27537918  -0.10210996  -0.14933994
N    2.88486910   1.14532959  -0.00971000
C    2.07336926   2.26749921   0.10137996
C    2.46426916   3.54392862   0.21053992
C    4.28495836   1.19173956   0.01763999
O    5.05657816   0.24004990  -0.07767998
H    0.69929975  -1.46980941  -0.34396988
H    0.15716994   0.27822992  -0.20783994
H    2.98387909  -0.93171960  -0.20255993
H    1.00021958   2.10499930   0.10326996
H    3.49355865   3.87835860   0.22033991
H    1.71425939   4.32680845   0.29232991
H    4.68918848   2.20478916   0.14166996

