%chk=mol_0316.chk
# wB97XD/Def2SVP opt freq pop=full gfinput

C 5 H 7 N 1

1 2
C    0.93791968  -0.02015999   0.00436000
C    2.13739920  -0.00624000   0.00256000
C    3.58528852   0.01087000  -0.00497000
C    4.26952839   1.02189958   0.94118965
N    5.28688812  -0.01215000   1.26021957
C    4.29373837  -1.04570961   0.87100965
H   -0.12840995  -0.03254999   0.00775000
H    3.99928856   0.05023998  -1.02258956
H    3.68024874   1.32754946   1.81471932
H    4.67056847   1.92033935   0.46207982
H    6.09772778   0.01836999   0.64079976
H    4.71531820  -1.89996922   0.33240989
H    3.71247864  -1.42359948   1.72133934

