%chk=mol_5791.chk
# wB97XD/Def2SVP opt freq pop=full gfinput

C 4 H 12 N 2 O 1

1 2
N    3.20684862  -0.95704967  -0.11684995
C    2.82362890  -0.15048994   1.04624963
C    2.71192908   1.33424950   0.68266976
O    4.00760841   1.82872927   0.31954989
C    3.94444871   3.20851898  -0.06380998
C    5.34743786   3.68830872  -0.45220983
N    5.83693790   2.99598885  -1.64805937
H    3.51035857  -1.87713933   0.19720992
H    4.02426863  -0.51394981  -0.54201978
H    3.58518863  -0.27968991   1.82341933
H    1.86732936  -0.51443982   1.43318951
H    2.34632921   1.89372933   1.55110943
H    2.01240921   1.47331941  -0.15009995
H    3.58073854   3.80014873   0.78376973
H    3.25146866   3.32951880  -0.90514964
H    6.04168749   3.48869872   0.37216988
H    5.33546782   4.76545811  -0.64280981
H    5.70773745   1.99294925  -1.49665952
H    6.84067726   3.14545870  -1.73598933

