%chk=mol_5938.chk
# wB97XD/Def2SVP opt freq pop=full gfinput

C 7 H 16

1 2
C    2.63510895  -0.82925969  -1.19783962
C    2.25704908   0.09967996  -0.05012998
C    2.92056894   1.50369942  -0.07124998
C    2.46827912   2.28349924  -1.32388949
C    2.42632914   2.28189921   1.16638947
C    4.47230816   1.44222951  -0.07905997
C    5.11297846   0.71848977   1.09915960
H    2.10320926  -1.78101933  -1.09292960
H    3.70559859  -1.05151963  -1.20295954
H    2.36022925  -0.40673986  -2.16795921
H    2.49019909  -0.40814984   0.89374971
H    1.16521955   0.21903992  -0.05976998
H    2.85733891   1.83445942  -2.24384928
H    2.82647896   3.31934881  -1.29295957
H    1.37599945   2.31350899  -1.40003943
H    2.64721918   1.74812937   2.09670925
H    1.34095943   2.43196917   1.12918961
H    2.89517903   3.27063894   1.22658956
H    4.87204838   2.46523905  -0.10264996
H    4.82034826   0.96826959  -1.00514960
H    4.88710785   1.21375954   2.04698920
H    6.20187759   0.71638972   0.98294961
H    4.78775787  -0.32344988   1.16173959

