%chk=mol_0078.chk
# wB97XD/Def2SVP opt pop=full gfinput

C 4 H 6 O 1

1 2
O    2.000596   0.006614   0.387016
C    4.277849  -0.008126   0.137383
C    6.324441   2.059594  -0.032654
C    8.073912  -0.002702  -1.152676
C    6.275176  -2.108178  -0.201558
H    6.901166   2.779182   1.817293
H    5.875839   3.621679  -1.302305
H    8.224409   0.078953  -3.217429
H    9.981136  -0.058279  -0.357706
H    5.789875  -3.549983  -1.593795
H    6.832211  -2.987619   1.583005

