%chk=mol_3350.chk
# wB97XD/Def2SVP opt pop=full gfinput

C 5 H 10 O 2

1 2
C    6.438165  -0.104464   3.111434
O    8.718686   0.414681   1.792084
C    8.635444   2.845795   0.604202
C   11.114972   3.262064  -0.723236
O   13.285058   2.369320   0.648762
C   11.304077   3.064399  -3.554537
C   11.534813   5.597860  -2.287381
H    6.626325  -1.941410   4.040215
H    4.846070  -0.190579   1.793237
H    6.088943   1.332559   4.558171
H    8.382655   4.304153   2.053754
H    7.047072   2.923954  -0.721838
H   12.805521   0.835561   1.560744
H    9.606725   2.676343  -4.629754
H   13.001543   2.230123  -4.341797
H   13.388520   6.469591  -2.212699
H    9.991568   6.924505  -2.502035

