%chk=mol_4496.chk
# wB97XD/Def2SVP opt pop=full gfinput

C 4 H 10 N 2 O 1

1 2
C    1.721994   0.171946   0.173061
C    4.584173   0.010564  -0.139594
C    5.384964  -1.378725  -2.551395
N    4.514915  -3.998358  -2.593252
C    5.632820   2.659695  -0.266451
N    7.329851   3.414452   1.323130
O    7.965592   5.919114   0.763544
H    1.230420   1.315986   1.827384
H    0.886830  -1.701982   0.432539
H    0.832027   1.054637  -1.474969
H    5.394299  -0.939062   1.515919
H    7.450472  -1.355463  -2.722585
H    4.640317  -0.404836  -4.222574
H    5.268273  -4.954219  -1.098044
H    5.186599  -4.870543  -4.175255
H    4.909074   3.909579  -1.776834
H    9.201587   6.315408   2.072954

