%chk=mol_4997.chk
# wB97XD/Def2SVP opt pop=full gfinput

C 4 H 6 N 2 O 1

1 2
C    1.851573   0.024000  -0.015949
N    4.571153  -0.086701  -0.003099
C    6.136999   1.968849   0.008636
N    8.526369   1.299754   0.020504
C    8.497966  -1.292648   0.015930
C    6.060881  -2.211584   0.000661
O    5.205100  -4.573081  -0.008863
H    1.232517   1.994417  -0.000227
H    1.149180  -0.941254   1.669441
H    1.167152  -0.909412  -1.726321
H    5.449649   3.895311   0.008126
H   10.230089  -2.378579   0.023338
H    3.373596  -4.588425  -0.022582

