%chk=mol_0462.chk
# wB97XD/Def2SVP opt pop=full gfinput

C 5 H 9 N 1

1 2
C    1.990373  -0.002400   0.067047
N    4.753701  -0.018878  -0.118335
C    5.610956  -2.246714  -1.588768
C    6.308888  -1.257858  -4.127937
C    6.324970   1.264567  -4.107830
C    5.639170   2.221675  -1.552675
H    1.352723   1.651167   1.135744
H    1.330821  -1.667230   1.104318
H    1.063935   0.021203  -1.785753
H    4.170285  -3.726011  -1.724300
H    7.280151  -3.066837  -0.679753
H    6.789446  -2.434572  -5.722658
H    6.820589   2.461009  -5.683748
H    7.318758   3.006422  -0.630923
H    4.217226   3.721287  -1.664754

