%chk=mol_1630.chk
# wB97XD/Def2SVP opt freq pop=full gfinput

C 6 H 11 N 1

1 2
C    1.09749961   0.04887998   0.35937986
N    2.51751900   0.00205000   0.00042000
C    2.84104896  -1.28174961  -0.66182977
C    2.61720920  -1.02100968  -2.11930943
C    3.66683865  -0.38322988  -2.99111891
C    2.61776900   0.45472983  -2.30932903
C    2.84206891   1.07593966  -0.96548963
H    0.86131972   0.99781960   0.85406965
H    0.86051971  -0.74368972   1.07814956
H    0.43267983  -0.06201998  -0.50508982
H    2.23701906  -2.11692905  -0.29020992
H    3.89320850  -1.52879941  -0.47753981
H    1.82341933  -1.60467935  -2.56171894
H    4.68624830  -0.33700988  -2.62583899
H    3.58570862  -0.52161980  -4.06295872
H    1.82443929   0.90783966  -2.88519883
H    3.89435863   1.36086941  -0.84968972
H    2.23841929   1.97836936  -0.81786972

