%chk=mol_6995.chk
# wB97XD/Def2SVP opt pop=full gfinput

C 5 H 4 N 2

1 2
C    1.829765   0.039779   0.003609
C    4.098741   0.044579   0.000605
C    6.782076   0.042878  -0.004951
N    8.195780   2.086730  -0.014267
C   10.645186   1.238640  -0.020163
C   10.721399  -1.357882  -0.014097
N    8.243496  -2.093647  -0.003364
H   -0.182888   0.060622   0.005140
H   12.219593   2.543779  -0.028913
H   12.263188  -2.696148  -0.016460
H    7.577726  -3.882064   0.003269

