%chk=mol_1736.chk
# wB97XD/Def2SVP opt freq pop=full gfinput

C 6 H 15 N 1

1 2
C    1.64417934  -0.48392981   0.47744983
N    3.01556873  -0.10223996   0.78990972
C    3.37074876   1.24890959   0.32313991
C    2.51262927   2.32829905   0.99804962
C    4.88629818   1.54225945   0.53881979
C    5.33595800   1.41476953   1.99932921
C    5.77612782   0.66578972  -0.35195988
H    1.49407935  -1.53375936   0.74776971
H    1.42737937  -0.37990984  -0.59008980
H    0.92036963   0.09710996   1.05499959
H    3.64346862  -0.78124970   0.36125985
H    3.18302894   1.30695951  -0.75779974
H    2.51468897   2.23004913   2.08886933
H    1.47223949   2.27795911   0.65937978
H    2.87902904   3.32996869   0.74771971
H    5.06679821   2.58185911   0.23233990
H    5.22067833   0.39181986   2.37097931
H    4.76783800   2.08270907   2.65286899
H    6.39284801   1.68519938   2.09875917
H    5.74222803  -0.38767985  -0.05812998
H    6.81988716   0.99185961  -0.28648987
H    5.47186804   0.74100971  -1.40057945

