%chk=mol_1389.chk
# wB97XD/Def2SVP opt pop=full gfinput

C 6 H 13 N 1

1 2
C    2.191289  -0.270571   0.532959
C    4.616261   0.634683  -0.769270
C    5.489673  -1.212940  -2.857776
N    6.136356  -3.713444  -1.866464
C    4.324922   3.319871  -1.786887
C    2.310001   3.808554  -3.736177
C    5.818523   5.203720  -0.965801
H    1.527957   1.119568   1.916938
H    2.514318  -2.045515   1.547610
H    0.667130  -0.598287  -0.829117
H    6.095425   0.658985   0.690733
H    7.152689  -0.442347  -3.825297
H    4.005067  -1.448588  -4.281420
H    7.577764  -3.545788  -0.599761
H    6.807909  -4.806896  -3.302637
H    0.433673   3.397633  -2.970725
H    2.612546   2.641894  -5.415634
H    2.300477   5.783809  -4.355970
H    7.277241   4.888929   0.443046
H    5.622275   7.120507  -1.673541

