%chk=mol_1070.chk
# wB97XD/Def2SVP opt pop=full gfinput

C 6 H 12

1 2
C    4.253887  -1.251452   2.705578
C    5.054810  -0.362242   0.093957
C    6.017002   2.308754   0.159436
C    8.432034   3.100209   0.003817
C   10.701538   1.400646  -0.184796
C    9.052052   5.879165   0.036321
H    3.502022  -3.175798   2.604912
H    2.780751  -0.031483   3.495370
H    5.856545  -1.258879   4.014515
H    3.424543  -0.434561  -1.184008
H    6.447254  -1.672597  -0.691564
H    4.531639   3.727409   0.323540
H   10.249554  -0.600687   0.038796
H   12.068037   1.874552   1.295993
H   11.622024   1.645063  -2.021497
H    7.358348   7.061623   0.159153
H   10.060902   6.406228  -1.691569
H   10.250630   6.327540   1.661882

