%chk=mol_2981.chk
# wB97XD/Def2SVP opt pop=full gfinput

C 5 H 10 O 2

1 2
C    3.766451  -1.706536   2.423763
C    6.462826  -1.278116   1.606683
C    8.254683  -2.991644   2.167100
C    6.903378   1.131020   0.122794
O    6.251932   3.239747   1.703720
C    9.593006   1.625731  -0.874339
O    9.667593   3.991083  -2.180782
H    3.145619  -0.204487   3.703807
H    3.528478  -3.506916   3.418099
H    2.512278  -1.731556   0.777962
H    7.805363  -4.695837   3.221643
H   10.213894  -2.783812   1.597650
H    5.599051   1.188902  -1.487668
H    6.996768   2.909290   3.354491
H   10.207355   0.147266  -2.181141
H   10.949357   1.761962   0.682475
H    8.579470   5.124786  -1.207157

