%chk=mol_3718.chk
# wB97XD/Def2SVP opt freq pop=full gfinput

C 6 H 8 O 1

1 2
O    1.11697948  -0.33233988   0.10314996
C    2.36429906   0.23760991  -0.29632989
C    2.79290891  -0.39983985  -1.62646937
C    4.15489864  -0.00917000  -2.02807927
C    5.26321793   0.31282988  -2.36010909
C    2.15275908   1.72392929  -0.39020985
C    2.81241894   2.63236904   0.34104985
H    0.84042972   0.14231995   0.90624970
H    3.09655881  -0.00591000   0.48337984
H    2.07732916  -0.14181995  -2.41749907
H    2.74147892  -1.49199939  -1.53183937
H    6.24455786   0.60358977  -2.65718889
H    1.40994954   2.06370926  -1.10932958
H    3.56849861   2.34479904   1.06538963
H    2.61421895   3.69296861   0.21827991

