%chk=mol_4563.chk
# wB97XD/Def2SVP opt freq pop=full gfinput

C 5 H 13 N 1 O 1

1 2
C    1.01710963   0.09887996   0.04130998
C    2.50748920  -0.11951996  -0.19665992
C    2.71912909  -1.06600964  -1.37438941
O    3.08113885   1.16688955  -0.44878983
C    4.51362848   1.16964948  -0.42565984
C    5.00677824   2.62123919  -0.46190983
N    4.62861824   3.34145856   0.75881970
H    0.86100966   0.78307974   0.88256967
H    0.50516981  -0.84343970   0.26038989
H    0.54328978   0.56120980  -0.83203971
H    2.94569898  -0.54513979   0.71404970
H    2.40073919  -0.60056978  -2.31336927
H    2.16577911  -2.00039911  -1.23703945
H    3.77740860  -1.32094944  -1.48818946
H    4.89105797   0.64617974  -1.30971944
H    4.88172817   0.66425979   0.47494984
H    4.56249857   3.13697863  -1.32044947
H    6.09555769   2.64450908  -0.56804979
H    3.62497854   3.19852877   0.89662969
H    4.75430822   4.34089851   0.60857981

