%chk=mol_6248.chk
# wB97XD/Def2SVP opt freq pop=full gfinput

C 4 H 6 N 2 O 1

1 2
O    3.11927891  -0.92429966  -0.62311977
C    2.28655910   0.04886998   0.00921000
C    1.90429926  -0.37025985   1.37166941
N    1.60136938  -0.69511974   2.44549918
C    3.07555866   1.31573951   0.19863993
C    3.39678884   2.19161916  -0.99305964
N    2.43710923   2.62297893   0.01318000
H    3.24692869  -0.62509978  -1.53840947
H    1.39586949   0.19901992  -0.61087978
H    3.84394860   1.23771954   0.96270961
H    2.98045897   1.94800937  -1.96263921
H    4.34718800   2.71163893  -1.01335967
H    2.84573889   3.31820893   0.64413977

