%chk=mol_5255.chk
# wB97XD/Def2SVP opt pop=full gfinput

C 5 H 9 N 1 O 1

1 2
C    2.127775   2.916188   0.485282
N    4.307895   2.060368  -0.186554
O    6.096162   4.002421   0.087646
C    8.496927   3.090024  -0.748388
C   10.361349   5.213736  -0.625386
C   11.957639   5.626924   1.698240
C   13.158219   4.677374  -0.697328
H    0.458259   1.677737   0.408219
H    1.828896   4.870580   1.146761
H    8.334902   2.433457  -2.706163
H    9.076279   1.500291   0.447563
H    9.693218   6.864317  -1.639470
H   11.770027   4.318534   3.264086
H   12.338154   7.558640   2.265366
H   14.351601   5.967887  -1.750642
H   13.786062   2.727631  -0.747443

