%chk=mol_2060.chk
# wB97XD/Def2SVP opt pop=full gfinput

C 6 H 9 N 1

1 2
N    1.799473  -0.341228  -0.028308
C    4.558284  -0.267888   0.070525
C    5.538183   2.448518  -0.157357
C    8.375549   2.543458  -0.042538
C    9.836818   3.400524  -1.925555
C   12.512028   3.454060  -1.704401
C   14.770515   3.502607  -1.525066
H    1.211220  -2.173090   0.072906
H    1.195989   0.320516  -1.733994
H    5.323321  -1.437345  -1.458623
H    5.181705  -1.100633   1.861399
H    4.783275   3.601648   1.391311
H    4.853535   3.293944  -1.922948
H    9.242141   1.886892   1.704325
H    9.011650   4.080580  -3.677067
H   16.777348   3.546468  -1.362209

