%chk=mol_1197.chk
# wB97XD/Def2SVP opt pop=full gfinput

C 6 H 15 N 1

1 2
C    5.324757  -2.394888   2.258827
C    4.046074   0.169263   2.496838
C    5.444963   2.307979   1.096438
C    3.906952   4.757499   1.275849
C    8.196933   2.731146   1.972080
N    8.389213   3.404247   4.649406
C   11.008373   3.836862   5.378123
H    4.151256  -3.855929   3.137172
H    7.162931  -2.422383   3.206336
H    5.600789  -2.906078   0.273122
H    3.817379   0.634287   4.501838
H    2.130950   0.003836   1.719311
H    5.527147   1.791139  -0.912228
H    3.663026   5.368183   3.238631
H    2.023349   4.497964   0.456709
H    4.835280   6.287308   0.235025
H    9.016942   4.251147   0.823240
H    9.312665   1.028200   1.586123
H    7.665334   1.981869   5.727401
H   11.833862   5.404352   4.309520
H   12.162958   2.142893   5.098878
H   11.090538   4.339378   7.382102

