%chk=mol_5106.chk
# wB97XD/Def2SVP opt freq pop=full gfinput

C 5 H 13 N 1 O 1

1 2
C    0.95659965  -0.41398984   0.03534998
N    2.36417913  -0.19289993   0.33524987
C    2.71356893   1.23976946   0.40703985
C    2.18299913   1.88483930   1.68628931
C    4.25067854   1.38566947   0.34621987
O    4.72535801   0.86152971  -0.90224963
C    6.14012766   0.96793962  -1.00318956
H    0.77960974  -1.48679936  -0.09763996
H    0.65265971   0.09009996  -0.88845968
H    0.31129989  -0.08325997   0.85512972
H    2.92823887  -0.59380978  -0.42080984
H    2.29884911   1.75475931  -0.46907982
H    2.53725886   1.35519958   2.57774901
H    1.08839965   1.89412928   1.70892942
H    2.51658893   2.92545891   1.76116943
H    4.72393847   0.84327966   1.17476952
H    4.52857876   2.44504905   0.41415983
H    6.44993782   0.53688979  -1.95918930
H    6.62592793   0.41302985  -0.19574992
H    6.44594765   2.01772928  -0.97770965

