%chk=mol_7002.chk
# wB97XD/Def2SVP opt pop=full gfinput

C 5 H 4 N 2

1 2
C    1.832392   0.240562  -0.001266
C    4.097229   0.084905   0.000340
C    6.784627  -0.114744   0.002192
N    8.083908   1.952805  -0.013209
N   10.699894   1.231516  -0.007691
C   10.804831  -1.213355   0.010658
C    8.282972  -2.458061   0.019899
H   -0.174422   0.403778  -0.002872
H   12.564184  -2.313422   0.018897
H    7.999588  -3.587759  -1.679532
H    7.999513  -3.561983   1.736129

