%chk=mol_4303.chk
# wB97XD/Def2SVP opt freq pop=full gfinput

C 5 H 11 N 1 O 1

1 2
C    2.43992901  -0.49356982  -1.51649940
C    2.33380914   0.10066997  -0.12122995
C    3.50889850   1.03279960   0.15963994
O    3.42040873   2.25198913  -0.63138980
C    3.06959891   3.02001882   0.55021977
C    3.41948891   1.84316933   1.47268939
N    4.76526833   2.03845930   2.03817916
H    1.60788941  -1.17979956  -1.70224941
H    3.37560868  -1.04947960  -1.63634944
H    2.41440916   0.28871989  -2.28192925
H    2.32846928  -0.71205968   0.61403978
H    1.38019955   0.63231975  -0.02305999
H    4.47203827   0.53204978  -0.00473000
H    3.67395854   3.92761850   0.64127976
H    2.00953937   3.29375863   0.53325981
H    2.65081882   1.55101943   2.19099927
H    5.45033789   2.36444926   1.35255957
H    5.16499805   1.19397950   2.44582891

