%chk=mol_4413.chk
# wB97XD/Def2SVP opt freq pop=full gfinput

C 5 H 9 N 1 O 1

1 2
C    1.32144952  -0.13337995   0.94227964
C    2.51999903   0.00000000   0.00000000
C    2.12311935  -0.44509983  -1.42126942
C    3.28421879  -0.43110985  -2.41199923
O    4.32952833  -1.25923944  -1.92758930
C    3.00201893   1.36116946   0.00000000
N    3.38622880   2.44615912   0.00000000
H    1.59060931   0.16003993   1.96314931
H    0.96497965  -1.16832960   0.97447962
H    0.48742980   0.50263983   0.62411976
H    3.30887890  -0.66285980   0.37586987
H    1.31627941   0.18806994  -1.81071925
H    1.73243928  -1.46932948  -1.36338949
H    3.67359877   0.58058977  -2.56342888
H    2.95345902  -0.81996965  -3.38094878
H    5.05956841  -1.20233953  -2.56996894

