%chk=mol_2130.chk
# wB97XD/Def2SVP opt pop=full gfinput

C 4 H 3 N 3

1 2
N    1.860851  -0.068729  -0.000000
C    4.398508  -0.112061  -0.000000
N    5.865918  -2.027374  -0.000000
C    5.765989   2.220787  -0.000000
C    6.933311   4.165561  -0.000000
C    8.426232   6.645146  -0.000000
N    9.526033   8.541184   0.000000
H    0.901380   1.584705   0.000000
H    0.841060  -1.680515   0.000000
H    4.813265  -3.645036  -0.000000

