%chk=mol_6665.chk
# wB97XD/Def2SVP opt freq pop=full gfinput

C 4 H 6 N 2 S 1

1 2
N    2.52425909  -0.72984976  -1.33836961
C    2.43692899  -0.07969997  -0.02631999
C    2.96954894   1.32724941  -0.03248999
N    2.23419929   2.40910912   0.13559996
C    3.03511882   3.53282857   0.08086997
C    4.37877846   3.29859877  -0.10700995
S    4.66127825   1.61256933  -0.22348991
H    2.19397926  -1.68882942  -1.25436950
H    3.50262856  -0.78048974  -1.61751938
H    2.97906876  -0.67832977   0.71505976
H    1.38574958  -0.06101998   0.28261989
H    2.58098888   4.51000834   0.18759993
H    5.18305826   4.01506853  -0.17841993

