%chk=mol_2595.chk
# wB97XD/Def2SVP opt freq pop=full gfinput

C 6 H 6 O 1

1 2
C    2.79618883  -1.08127964   0.40227985
C    2.19865918   0.09289996   0.17128994
C    2.94314885   1.30282950   0.10514996
C    2.47807884   2.59301901  -0.12438995
C    3.58785868   3.47041869  -0.10034996
C    4.68159819   2.68075895   0.14233996
O    4.31059837   1.38414955   0.26709989
H    2.21603918  -1.99687922   0.45021984
H    3.86966848  -1.16317964   0.54876977
H    1.12312961   0.13596995   0.02968999
H    1.44425952   2.86308908  -0.29071990
H    3.58890843   4.54171848  -0.24200991
H    5.73918772   2.87572885   0.25012991

