%chk=mol_4989.chk
# wB97XD/Def2SVP opt pop=full gfinput

C 4 H 7 N 1 O 2

1 2
C    2.087599  -0.052308   0.318816
N    4.680965   0.056200  -0.506579
C    6.150397   2.313441  -0.334746
C    8.664905   1.442749  -1.353894
O    8.704514  -1.222634  -0.877797
C    6.263214  -2.008061  -0.524531
O    5.656442  -4.211368  -0.219303
H    1.298922  -1.928579  -0.039571
H    0.994431   1.368540  -0.706833
H    2.012294   0.330286   2.348533
H    6.298136   2.848932   1.659520
H    5.315535   3.858046  -1.421490
H    8.826193   1.737679  -3.396084
H   10.257415   2.361175  -0.410486

