%chk=mol_1547.chk
# wB97XD/Def2SVP opt pop=full gfinput

C 5 H 10 N 2

1 2
C    6.598961  -2.145954   0.427286
C    6.204557  -0.093239   2.411253
N    6.037920   2.465526   1.335469
C    5.306332   4.286693   3.289579
C    8.355197   3.293755  -0.000038
C   10.701765   3.367114   1.517412
N   12.543510   3.423862   2.715555
H    6.422272  -4.012909   1.302626
H    8.478256  -2.040375  -0.428250
H    5.181705  -2.016035  -1.074895
H    7.692225  -0.222062   3.848824
H    4.417008  -0.524550   3.371158
H    3.465512   3.782230   4.093147
H    5.091017   6.180860   2.481229
H    6.677706   4.385790   4.837623
H    8.017239   5.181516  -0.791342
H    8.656174   2.087184  -1.656666

