%chk=mol_3742.chk
# wB97XD/Def2SVP opt pop=full gfinput

C 5 H 4 O 2

1 2
O    2.412009  -0.774315   0.969354
C    4.139483   0.071451  -0.329417
C    5.663679   2.363613   0.383728
C    8.383430   1.844486   0.219605
C   10.617389   1.457243   0.081296
C   13.302690   1.017315  -0.091293
O   14.609095   2.251987  -1.540996
H    4.578353  -0.771594  -2.186734
H    5.149787   2.939696   2.302083
H    5.141416   3.892477  -0.910035
H   14.057994  -0.477137   1.144399

