%chk=mol_7036.chk
# wB97XD/Def2SVP opt freq pop=full gfinput

C 6 H 9 N 1

1 2
C    0.99999964   0.00000000   0.00000000
C    2.44399905   0.00000000   0.00000000
C    3.63415861   0.00000000   0.00000000
C    5.06559801   0.01764999   0.05764998
N    5.82850790  -0.67344975  -0.98380965
C    5.82859802   0.78368968  -0.99513960
C    7.07289743   1.51649940  -0.63028973
H    0.60596979   1.02086961   0.01164000
H    0.60591978  -0.52053982   0.87823963
H    0.60599977  -0.50030982  -0.88994968
H    5.49990797  -0.04132998   1.05020964
H    5.19112825  -1.04742956  -1.68782938
H    5.28851795   1.26224959  -1.80364931
H    7.62521696   1.02431965   0.17688994
H    6.82574749   2.53071904  -0.30141988
H    7.73507690   1.59347939  -1.49821937

