%chk=mol_6776.chk
# wB97XD/Def2SVP opt freq pop=full gfinput

C 6 H 11 N 1

1 2
C    1.02057958   0.10427997   0.17331994
C    2.50621891  -0.09150997  -0.10594996
C    2.83649898  -1.52025938  -0.58898979
N    2.89370894  -1.46283937  -2.06053925
C    3.29328895  -0.08879997  -2.39602923
C    2.28010917   1.00313962  -2.51418900
C    3.01723886   0.79680967  -1.21310949
H    0.80256969   1.15428960   0.39269987
H    0.71393979  -0.49475983   1.03684962
H    0.39752987  -0.19851993  -0.67354971
H    3.06539893   0.11719996   0.81474972
H    2.11645913  -2.26751924  -0.24247991
H    3.82741857  -1.80387938  -0.21323991
H    3.55862880  -2.15362906  -2.40627909
H    4.23720884   0.03356998  -2.91869879
H    2.54167914   1.87076938  -3.10807896
H    1.23842955   0.72168976  -2.59909916
H    3.77399850   1.50512946  -0.90802968

