%chk=mol_0486.chk
# wB97XD/Def2SVP opt freq pop=full gfinput

C 5 H 9 N 1

1 2
C    1.01248956  -0.02342999  -0.01301000
N    2.46554923   0.01195000   0.04740998
C    2.96069884   1.38567948   0.00000000
C    4.40469837   1.38567948   0.00000000
C    5.59485769   1.38567948   0.00000000
C    7.03885746   1.38567948   0.00000000
H    0.67091972  -1.06223953   0.03109999
H    0.63698977   0.41427982  -0.94376963
H    0.56741977   0.50517982   0.83625966
H    2.85271907  -0.50032979  -0.74417973
H    2.59157896   1.94478929   0.86748964
H    2.59346914   1.89136934  -0.90092963
H    7.43294716   2.40651917  -0.01179000
H    7.43287706   0.86501968  -0.87818968
H    7.43288708   0.88542962   0.88996965

