%chk=mol_3062.chk
# wB97XD/Def2SVP opt pop=full gfinput

C 6 H 14 O 1

1 2
C    5.486347  -2.102717   2.275722
C    6.612322  -1.633290  -0.337429
C    4.604960  -2.046668  -2.365068
O    7.445332   0.925361  -0.578937
C    9.796397   1.508436   0.618488
C   12.013651   0.627748  -1.001215
C    9.875595   4.372505   0.936076
H    6.929059  -1.964692   3.749368
H    4.640695  -3.986245   2.396891
H    4.039479  -0.691375   2.721735
H    8.174105  -2.945535  -0.684345
H    3.032292  -0.719627  -2.134276
H    3.859993  -3.974774  -2.308225
H    5.399968  -1.703664  -4.244892
H    9.900672   0.640428   2.492379
H   11.859864   1.363135  -2.929359
H   12.058059  -1.433452  -1.150295
H   13.815485   1.243610  -0.194774
H    9.734905   5.328007  -0.893803
H   11.619831   4.978918   1.870262
H    8.266361   5.014464   2.067909

