%chk=mol_5748.chk
# wB97XD/Def2SVP opt pop=full gfinput

C 5 H 11 N 1 O 1

1 2
N    1.522533   0.209684   1.278626
C    4.266662  -0.059829   0.967389
C    5.656083   2.511163   0.892385
C    5.273394   4.025702   3.349218
O    2.698869   4.744403   3.677709
C    8.446074   2.088563   0.426360
C    9.702780   2.981515  -1.581720
H    0.729756  -1.551446   1.302173
H    0.801282   1.066354  -0.297896
H    4.628563  -1.110063  -0.782441
H    4.990313  -1.211428   2.530740
H    4.844955   3.613005  -0.670532
H    6.395174   5.765082   3.318378
H    5.853351   2.930020   5.007774
H    1.704986   3.212364   3.335971
H    9.476315   0.995016   1.832354
H    8.773167   4.094451  -3.033672
H   11.711275   2.623734  -1.807542

