%chk=mol_5825.chk
# wB97XD/Def2SVP opt freq pop=full gfinput

C 4 H 4 N 2 O 1

1 2
N    1.00897956   0.01826999   0.00000000
C    2.35123920  -0.02633999  -0.00000000
N    3.11385894  -1.05112958   0.00000000
C    3.09027886   1.19947946  -0.00000000
C    3.71575856   2.22526932   0.00000000
C    4.47866821   3.44332886   0.00000000
O    3.92020869   4.53121853  -0.00000000
H    0.52300984   0.90626967  -0.00000000
H    0.45154983  -0.82231969   0.00000000
H    2.54071903  -1.89628923  -0.00000000
H    5.57345819   3.32367897   0.00000000

