%chk=mol_0882.chk
# wB97XD/Def2SVP opt pop=full gfinput

C 6 H 12

1 2
C    1.835793  -0.021940   0.022526
C    4.698615   0.026381   0.049001
C    5.952996   1.997818   1.818465
C    8.015972   0.010677   2.357301
C    6.038658  -2.039468   1.670272
C    7.017498  -4.335598   0.267491
H    1.147404  -1.649655  -1.050612
H    1.088785   1.688999  -0.866024
H    1.055223  -0.141352   1.935987
H    5.447174   0.142145  -1.884605
H    4.829214   2.494779   3.486828
H    6.601947   3.733853   0.906898
H    9.627342   0.121302   1.059758
H    8.721709  -0.039552   4.297974
H    4.919354  -2.614833   3.324217
H    8.154131  -3.799956  -1.376665
H    5.447041  -5.506095  -0.395293
H    8.196895  -5.496419   1.508644

