%chk=mol_4161.chk
# wB97XD/Def2SVP opt freq pop=full gfinput

C 7 H 14

1 2
C    1.87464929  -0.56309980  -1.34907949
C    2.37167931  -0.04359998  -0.00799000
C    3.20664883   1.23752952  -0.14683995
C    4.51532793   1.01683962  -0.91026962
C    2.40736914   2.50276899  -0.58565980
C    3.14502883   3.29726887   0.50787979
C    3.42265892   1.96049917   1.22019958
H    1.22512960  -1.43098950  -1.19788957
H    2.70342898  -0.87758964  -1.98950922
H    1.30265951   0.19988991  -1.88517940
H    2.96197891  -0.82408971   0.48792982
H    1.49921942   0.14138994   0.63184977
H    5.14713764   1.91194928  -0.90660965
H    4.32615852   0.76319969  -1.95811927
H    5.09610796   0.20352992  -0.46125981
H    1.32590961   2.43959928  -0.41297984
H    2.57453918   2.84974909  -1.60937941
H    4.04773855   3.80677867   0.15274994
H    2.53462911   4.01217842   1.06566966
H    4.41591835   1.86650932   1.66888928
H    2.67557883   1.72315931   1.98781919

