%chk=mol_2343.chk
# wB97XD/Def2SVP opt freq pop=full gfinput

C 7 H 4

1 2
C    0.99999964   0.00000000   0.00000000
C    2.19015908   0.00000000   0.00000000
C    3.63415861   0.00000000   0.00000000
C    4.13407850  -0.70737970  -1.15534949
C    4.54612827  -1.29040945  -2.10759926
C    4.11617851   1.36116946   0.00000000
C    4.51345825   2.48306894   0.00000000
H   -0.06585998   0.00282000  -0.00487000
H    3.99022865  -0.50382978   0.90697968
H    4.91223812  -1.80843937  -2.96306896
H    4.86664772   3.48889875  -0.00487000

