%chk=mol_4069.chk
# wB97XD/Def2SVP opt freq pop=full gfinput

C 5 H 7 N 1 O 1

1 2
C    0.90816969   0.08676997  -0.00831000
C    2.38543916   0.03899999  -0.00261000
C    3.26554871   1.09499955   0.00630000
O    4.53839827   0.63502979   0.00877000
N    4.52723837  -0.74591970   0.00147000
C    3.23705888  -1.09992969  -0.00527000
C    2.87184906  -2.53496909  -0.01442999
H    0.54251981   1.11867964  -0.00000000
H    0.50446981  -0.42161983   0.87303966
H    0.51196980  -0.40474984  -0.90254968
H    3.15874887   2.16964912   0.01148000
H    1.78645933  -2.67476892  -0.01060000
H    3.27855873  -3.04020882   0.86814970
H    3.27080870  -3.02653885  -0.90812969

