%chk=mol_5449.chk
# wB97XD/Def2SVP opt freq pop=full gfinput

C 4 H 10 N 2 O 1

1 2
C    3.78893852  -0.73104972   1.22439957
O    4.30202866   0.14274995   0.22560991
N    4.64310837   1.35970950   0.83534968
C    5.13933849   2.14897919  -0.06463998
C    5.63607836   3.54613876   0.26706991
C    4.94441795   4.14533854   1.48492944
N    7.08814716   3.47082853   0.47201982
H    3.49894857  -1.67007947   0.74623972
H    2.90704894  -0.28970987   1.69918942
H    4.55762863  -0.93931967   1.97501922
H    5.26838827   1.81943941  -1.11233950
H    5.43680811   4.17400837  -0.60794979
H    5.14165831   3.56520867   2.39399910
H    3.85845876   4.16912842   1.33977950
H    5.28244781   5.17237806   1.66162932
H    7.27107716   2.83823895   1.25408947
H    7.43397713   4.38154793   0.77154970

