%chk=mol_5999.chk
# wB97XD/Def2SVP opt freq pop=full gfinput

C 4 H 5 N 1 O 2

1 2
O    1.15583956  -0.07522997   0.45285982
C    2.32246900   0.01207000   0.12232995
C    3.12555861   1.27244949   0.00524000
C    4.34978819   0.78577971  -0.76245970
N    4.44228840  -0.63166976  -0.54754984
C    3.23467875  -1.17465961  -0.18066992
O    2.93961883  -2.34588909  -0.11792996
H    3.39598870   1.61010933   1.00997961
H    2.58622909   2.05325913  -0.53424984
H    4.22838831   0.95111966  -1.83858931
H    5.27206802   1.27137947  -0.43257985
H    5.15791798  -1.23530948  -0.93655968

