%chk=mol_4348.chk
# wB97XD/Def2SVP opt pop=full gfinput

C 5 H 11 N 1 O 1

1 2
C    2.208995  -0.979181  -0.077252
C    5.048252  -0.543882   0.000359
C    5.688567   2.272471   0.000567
C    8.540031   2.702308   0.084584
C    9.212982   5.482020   0.031351
N   11.748579   5.950427   0.055407
O    7.685233   7.217922  -0.024000
H    1.796185  -3.005080  -0.096206
H    1.376892  -0.137893  -1.773036
H    1.288396  -0.151084   1.578658
H    5.921608  -1.462799  -1.639148
H    5.829031  -1.444507   1.695576
H    4.795709   3.191936   1.630210
H    4.896658   3.166047  -1.694385
H    9.441733   1.786925  -1.539824
H    9.328482   1.878822   1.814213
H   13.067872   4.571777   0.082581
H   12.314551   7.776544   0.013889

