%chk=mol_1144.chk
# wB97XD/Def2SVP opt freq pop=full gfinput

C 4 H 5 N 1 S 1

1 2
C    0.89964962   0.03790998  -0.00783000
C    2.38219905   0.08513997   0.00010000
C    3.24229884   1.16555965   0.00288000
C    4.59399843   0.71630973   0.01066000
N    4.79354811  -0.59692979   0.01372999
S    3.31515861  -1.35110950   0.00699000
H    0.47677982   1.04811954  -0.00043000
H    0.52167982  -0.48930982   0.87422967
H    0.53131980  -0.47245982  -0.90375966
H    2.93069887   2.20043921  -0.00043000
H    5.47202778   1.35056949   0.01426999

