%chk=mol_6024.chk
# wB97XD/Def2SVP opt freq pop=full gfinput

C 5 H 9 N 1 O 1

1 2
O    0.86261964   0.00287000   0.09536996
C    2.31092906   0.00904000  -0.01088000
C    3.02683878   1.01645970   0.94404966
N    3.90495849  -0.05267998   1.44594944
C    3.04426885  -1.07894957   0.83330965
C    2.78352904   0.08422997  -1.43353939
C    2.27267909  -0.72807974  -2.36879897
H    0.68601978  -0.05335998   1.04995954
H    2.37710905   1.43810940   1.72050941
H    3.55799866   1.85017931   0.47236982
H    4.84102821  -0.02678999   1.03830957
H    3.59133863  -1.84692931   0.27538988
H    2.40293908  -1.59198940   1.55995941
H    3.54535866   0.81037968  -1.69762933
H    1.49732947  -1.45082939  -2.13108921
H    2.60720897  -0.67082971  -3.39930892

