%chk=mol_3244.chk
# wB97XD/Def2SVP opt freq pop=full gfinput

C 5 H 10 O 2

1 2
C    0.89489967  -0.00456000  -0.09694996
C    2.41284895   0.14644994  -0.03793998
O    2.97301888  -0.54259980  -1.15864956
C    2.97059870   1.55485940  -0.04803998
C    2.22813892   2.67182899  -0.15047994
C    4.47055864   1.64992940   0.11202995
O    5.11825800   1.11241949  -1.03117955
H    0.40836987   0.47326982   0.75889969
H    0.62277979  -1.06598961  -0.09924996
H    0.48573983   0.41853985  -1.02138960
H    2.76790881  -0.36278987   0.86576968
H    2.59273911  -0.12557995  -1.95421934
H    1.14777958   2.65368891  -0.25102991
H    2.68912911   3.65645862  -0.14367995
H    4.80072832   1.09786963   0.99809963
H    4.80636787   2.68568897   0.22708991
H    4.70165825   0.24175991  -1.19361961

