%chk=mol_0006.chk
# wB97XD/Def2SVP opt freq pop=full gfinput

C 2 H 6 O 1

1 2
C    0.98269963  -0.00179000   0.00455000
O    2.40329909   0.02362999   0.00000000
C    2.90146875   1.35425949  -0.00455000
H    0.65649974  -1.04554963   0.00312000
H    0.58758980   0.48885980  -0.89019966
H    0.59361976   0.48471981   0.90443963
H    3.99423862   1.31333959  -0.00312000
H    2.57084894   1.89048922   0.89019966
H    2.57274914   1.88341939  -0.90443963

