%chk=mol_4531.chk
# wB97XD/Def2SVP opt freq pop=full gfinput

C 4 H 6 N 2 O 1

1 2
C    0.99706966  -0.04773998  -0.01244000
C    2.51999903   0.00000000   0.00000000
C    3.14131880  -0.72502971  -1.16894960
N    2.46707916  -1.06274962  -2.22258925
O    3.33137870  -1.69227946  -3.12668896
C    3.00201893   1.36116946   0.00000000
N    3.38622880   2.44615912   0.00000000
H    0.58310980   0.43447983   0.88096970
H    0.63775975  -1.08265960  -0.03334999
H    0.58034980   0.46684983  -0.88637966
H    2.87580895  -0.51245981   0.90194964
H    4.22579861  -0.93773967  -1.09666967
H    2.75275898  -1.85030925  -3.89812875

