%chk=mol_1781.chk
# wB97XD/Def2SVP opt pop=full gfinput

C 5 H 12 N 2

1 2
C    4.362716   0.435979  -1.328005
N    6.580215   1.919622  -1.980263
C    8.570172   1.620024  -0.086398
C   10.803337   3.288709  -0.721894
C   12.850005   2.346057  -1.907924
C   10.687119   6.000278   0.128766
N    8.630342   7.368930  -1.087802
H    2.927942   0.666317  -2.796247
H    3.541441   1.044471   0.468576
H    4.817838  -1.578129  -1.215774
H    6.118782   3.800598  -2.006058
H    9.169613  -0.363432  -0.012113
H    7.878117   2.105816   1.808354
H   12.911497   0.382764  -2.504473
H   14.474981   3.515646  -2.349818
H   12.468167   6.976944  -0.279188
H   10.434123   6.063413   2.183975
H    8.937762   7.326620  -2.991342
H    8.737546   9.221883  -0.578653

