%chk=mol_4686.chk
# wB97XD/Def2SVP opt freq pop=full gfinput

C 5 H 9 N 1 O 1

1 2
C    2.47222924  -0.33255985   1.72358930
C    2.20765901   0.31480986   0.37204987
N    3.02100873   1.51391947   0.16619994
C    2.62167883   2.76931906   0.59842974
C    1.48629940   3.06351876   1.24042952
C    4.26497841   1.34257948  -0.44009984
O    4.74602795   0.28289989  -0.82606971
H    1.86449933  -1.23558950   1.83704925
H    2.22888923   0.34763986   2.54583907
H    3.52543855  -0.61450976   1.82495940
H    1.14584959   0.55545980   0.25379992
H    2.43829918  -0.41277984  -0.41553986
H    3.31501889   3.58317852   0.38912985
H    0.73685968   2.32730889   1.50353944
H    1.27943945   4.08888865   1.53322947
H    4.82137823   2.28869915  -0.55121976

