%chk=mol_7125.chk
# wB97XD/Def2SVP opt pop=full gfinput

C 6 H 7 N 1

1 2
C    1.856202   0.002608  -0.013833
C    4.762110   0.000000   0.000000
C    5.693442  -1.348943   2.400803
C    5.675490  -1.423984  -2.240535
C    6.430379  -2.559426  -4.054653
C    5.672996   2.572238   0.000000
N    6.399047   4.622572   0.000000
H    1.106756   0.949304  -1.700054
H    1.091449   0.991464   1.639545
H    1.096948  -1.926085  -0.002249
H    5.036895  -0.386166   4.114860
H    7.765206  -1.407203   2.481645
H    5.019699  -3.307550   2.479037
H    7.111323  -3.554272  -5.670501

