%chk=mol_3829.chk
# wB97XD/Def2SVP opt freq pop=full gfinput

C 4 H 6 N 2 O 1

1 2
C   -1.46009946   0.58397979   0.28684989
C   -1.35000944  -0.76561975  -0.38910985
C   -0.29385987  -1.47205949   0.38091987
N    0.93922961  -1.09618962   0.46346983
N    1.40535951  -0.06462998  -0.34464988
C    0.79811966   1.06520963  -0.50364983
O   -0.42790985   1.49330938  -0.12475996
H   -2.40791893   1.05032969  -0.00214000
H   -1.44661939   0.52352983   1.38139951
H   -1.07186961  -0.69718975  -1.44442940
H   -2.28094912  -1.33186948  -0.29251990
H   -0.61157978  -2.33457923   0.98960966
H    1.29937947   1.87669921  -1.05404961

