%chk=mol_5477.chk
# wB97XD/Def2SVP opt freq pop=full gfinput

C 5 H 9 N 1 O 1

1 2
N    0.77189970   0.03190999  -0.07594997
C    2.20884895   0.00594000   0.18997993
C    3.10761905  -0.90221965  -0.60857981
C    2.68990898  -1.46161950  -1.93217933
C    2.93345881  -0.31224987  -2.90639901
O    2.80758905   0.89825970  -2.13740921
C    3.20363879   0.58606976  -0.77672970
H    0.39309984   0.96092963   0.09934996
H    0.27543989  -0.60908973   0.53847975
H    2.46368909   0.12842995   1.24149954
H    3.92303848  -1.42299938  -0.13085996
H    3.25994873  -2.35172915  -2.21501899
H    1.62882936  -1.73726928  -1.92219925
H    3.95354843  -0.34874988  -3.30489898
H    2.22564936  -0.30813986  -3.73969865
H    4.06968832   1.09729958  -0.37347984

