%chk=mol_3115.chk
# wB97XD/Def2SVP opt pop=full gfinput

C 5 H 8 O 2

1 2
C    2.060595  -0.104294  -0.085737
C    4.899871   0.040308  -0.061057
C    6.219656  -2.479907  -0.138952
O    7.517539  -2.882267   2.169727
C    6.073731   2.298172   0.018444
C    8.851420   2.666574   0.114669
O   10.379227   0.946337   0.365964
H    1.178509   1.767215  -0.021184
H    1.382032  -1.173936   1.550823
H    1.405219  -1.045907  -1.808336
H    7.542237  -2.607123  -1.727512
H    4.859771  -4.023907  -0.365246
H    9.041187  -1.833998   2.042662
H    4.996247   4.044846   0.049076
H    9.458797   4.656096  -0.027193

