%chk=mol_4162.chk
# wB97XD/Def2SVP opt freq pop=full gfinput

C 5 H 7 N 1 O 1

1 2
C    1.09049964  -0.05010998  -0.08428997
C    2.55947900   0.16690993  -0.10702997
N    3.13672900   1.25853956  -0.50155985
O    4.55665827   1.12051964  -0.36668986
C    4.80489826  -0.14720994   0.28754988
C    4.57417822  -1.40325940  -0.49909982
C    3.48793864  -0.85066968   0.38506988
H    0.86285967  -1.11842954  -0.12346995
H    0.62655979   0.44968984  -0.93896967
H    0.68135977   0.36992988   0.83879972
H    5.47547770  -0.16892995   1.13594949
H    5.08593798  -2.30174923  -0.17621994
H    4.46643829  -1.31371951  -1.57415938
H    3.25243878  -1.35273945   1.31323946

