%chk=mol_4026.chk
# wB97XD/Def2SVP opt pop=full gfinput

C 4 H 8 N 2 O 1

1 2
C    1.804745  -0.087173   0.531580
C    4.612991  -0.046147  -0.088571
C    5.349853   2.381811  -1.458604
N    7.987948   2.076204  -2.199263
N    8.617794  -0.042651  -3.501285
C    7.228486  -2.024539  -3.140763
O    5.161295  -2.224283  -1.631136
H    1.274790   1.513897   1.727682
H    1.309675  -1.839743   1.515541
H    0.663823  -0.035413  -1.195422
H    5.687206  -0.250275   1.673882
H    5.130739   4.026269  -0.223630
H    4.191053   2.669711  -3.151874
H    8.654019   3.649307  -3.096864
H    7.587628  -3.822311  -4.121909

