%chk=mol_6256.chk
# wB97XD/Def2SVP opt pop=full gfinput

C 4 H 9 N 1 O 2

1 2
O    5.455224  -1.551673  -2.235546
C    4.411396  -0.339697  -0.061662
C    5.239927   2.436632  -0.004573
N    8.013403   2.593007   0.215183
C    8.920396   5.190964  -0.136325
C    8.219515   6.802277   2.122162
O    7.089610   8.821714   1.960251
H    4.937590  -3.313654  -2.152870
H    5.054507  -1.342764   1.631060
H    2.349553  -0.465515  -0.172078
H    4.331611   3.384556   1.594211
H    4.627183   3.344891  -1.763077
H    8.727454   1.482641  -1.203000
H    8.188127   6.041058  -1.873682
H   10.985734   5.177245  -0.249255
H    8.865480   6.085504   3.972337

