%chk=mol_3588.chk
# wB97XD/Def2SVP opt freq pop=full gfinput

C 5 H 6 O 2

1 2
O    0.96712965  -0.15902995  -0.06782997
C    2.36910915  -0.01285999   0.04767998
C    3.02373886  -1.22930956  -0.51346982
C    3.81409860  -0.85369968  -1.51820946
O    3.79883862   0.50681978  -1.76876938
C    2.91429901   1.07394958  -0.85199964
C    2.64882898   2.38586903  -0.83850974
H    0.59507978   0.73040974  -0.16878994
H    2.64744902   0.14513995   1.09381950
H    2.86816907  -2.23539901  -0.15949994
H    4.44185829  -1.44205940  -2.16355920
H    3.12286878   3.04874873  -1.55478942
H    1.96449935   2.82037902  -0.11948995

