%chk=mol_4828.chk
# wB97XD/Def2SVP opt pop=full gfinput

C 7 H 14

1 2
C    4.412964  -0.797634  -2.718673
C    4.696839   0.074814   0.019067
C    6.062071  -1.940295   1.571742
C    6.181087   2.550998   0.108111
C    4.845144   4.941653  -0.960094
C    6.149811   6.454473   1.159555
C    6.245110   3.971297   2.681238
H    3.381174   0.602690  -3.839659
H    3.369854  -2.582537  -2.820038
H    6.258395  -1.077692  -3.615632
H    2.805185   0.350979   0.819839
H    7.979198  -2.269977   0.860373
H    5.036139  -3.737387   1.514729
H    6.223114  -1.366631   3.553743
H    8.090900   2.325062  -0.686405
H    2.779334   4.914837  -0.805798
H    5.366803   5.475406  -2.887048
H    8.016388   7.185003   0.637008
H    5.035988   7.979746   1.994549
H    7.945354   3.688726   3.819703
H    4.578466   3.668506   3.873353

