%chk=mol_5599.chk
# wB97XD/Def2SVP opt freq pop=full gfinput

C 4 H 4 N 2 O 1

1 2
N    1.09732962  -0.04811998  -0.27175990
C    2.34402919   0.02004999  -0.00871000
N    3.12743878  -1.04926956   0.21485993
C    4.39481831  -0.64807975   0.46486983
O    5.36056805  -1.34448946   0.70789969
C    4.40598869   0.81761974   0.39044985
C    3.16539884   1.22034955   0.10402996
H    0.78647971  -1.02216959  -0.28720990
H    2.85654879  -2.01631927   0.20761994
H    5.28649807   1.41373956   0.54750985
H    2.79450893   2.22125912  -0.02774999

