%chk=mol_6403.chk
# wB97XD/Def2SVP opt freq pop=full gfinput

C 5 H 10 N 2

1 2
C    0.95663965   0.12655996   0.13011995
C    2.47172904   0.08835997   0.12707995
C    3.19195890   1.18365955   0.94070965
C    4.14209843   0.04666998   1.34637952
N    3.01573873  -0.90633965   1.10925961
N    3.37423873  -2.10108924   0.58314979
C    2.91579890  -3.08562875   1.27999949
H    0.54327983  -0.78249967  -0.32036990
H    0.59543979   0.97988963  -0.45385981
H    0.54895979   0.21831992   1.14325953
H    2.87688899  -0.02270999  -0.88912964
H    2.61399889   1.60020936   1.77430928
H    3.63683867   1.99935925   0.36582986
H    5.00001812  -0.08030996   0.67343980
H    4.50151873   0.08076997   2.37871933
H    3.13086867  -4.11941814   0.96715963
H    2.30675912  -2.96017885   2.19322920

