%chk=mol_5623.chk
# wB97XD/Def2SVP opt freq pop=full gfinput

C 5 H 7 N 1 O 1

1 2
N    2.12035918  -0.43876985  -1.33295941
C    2.45819902  -0.05514998   0.02940999
C    2.98116899   1.33387947   0.00877000
C    2.24920917   2.50155926  -0.08499997
O    3.06181884   3.58805871  -0.06080998
C    4.33286858   3.12610888   0.04358998
C    4.34131861   1.75178933   0.09031996
H    1.85875928  -1.42192948  -1.34833956
H    2.94925880  -0.35123989  -1.91900933
H    3.20777893  -0.74324971   0.43539983
H    1.56812942  -0.11934996   0.66425979
H    1.19208956   2.70998907  -0.17527995
H    5.10389805   3.88282847   0.07235997
H    5.21873808   1.12635958   0.17398992

