%chk=mol_2242.chk
# wB97XD/Def2SVP opt pop=full gfinput

C 7 H 6

1 2
C    1.822357  -0.066575   0.000019
C    4.349394  -0.015420   0.000000
C    5.701379   2.300987   0.000000
C    6.825918   4.248747   0.000000
C    8.190300   6.611925   0.000000
C    7.050360   9.091189   0.000000
C    6.110826  11.134606   0.000000
H    0.812223  -1.850628   0.000019
H    0.708496   1.657290   0.000019
H    5.419961  -1.764022  -0.000000
H    9.472611   6.552323  -1.634386
H    9.472611   6.552323   1.634386
H    5.262264  12.961064  -0.000000

