%chk=mol_3647.chk
# wB97XD/Def2SVP opt freq pop=full gfinput

C 5 H 6 O 2

1 2
O    1.61944938  -0.29226989  -1.02472961
C    2.63789892  -0.04702998  -0.06210998
C    2.90947890   1.40731943  -0.04134998
C    2.16891909   2.52716899  -0.36307988
C    2.99963880   3.64513850  -0.11297996
C    4.19126844   3.13970900   0.34856987
O    4.14606810   1.78363931   0.40086985
H    1.51855946  -1.25678945  -1.07550967
H    3.53270864  -0.60903978  -0.34590986
H    2.28862906  -0.38715985   0.91693962
H    1.15512967   2.52244925  -0.73860973
H    2.76004910   4.68951845  -0.25383991
H    5.12233829   3.58805871   0.66618973

