%chk=mol_5937.chk
# wB97XD/Def2SVP opt pop=full gfinput

C 6 H 11 N 1

1 2
C    1.880164   0.272291  -0.388565
C    4.663069  -0.012756   0.343798
C    5.800987  -2.537713  -0.615314
C    7.391172  -2.314499  -2.943683
C    7.846634  -0.082298  -4.043504
C    6.832513   2.360041  -3.012790
N    6.133730   2.253555  -0.349996
H    1.085610   2.010291   0.417063
H    0.776848  -1.303817   0.380988
H    1.598765   0.312712  -2.434440
H    4.678490  -0.100231   2.412972
H    4.299807  -3.913472  -0.965745
H    7.009769  -3.329036   0.881765
H    8.175749  -4.039876  -3.750048
H    8.971550   0.011660  -5.746166
H    8.305497   3.808063  -3.221435
H    5.238094   2.981950  -4.180509
H    7.764715   2.235471   0.672667

