%chk=mol_2516.chk
# wB97XD/Def2SVP opt pop=full gfinput

C 5 H 8 O 2

1 2
C    1.627999  -0.306457   0.060547
C    4.324336  -0.291282  -0.722575
O    4.768138   0.546773  -3.260949
C    5.663698   2.160335  -1.271521
C    8.470867   2.356167  -1.105036
C    9.411479   2.700022   1.560914
O    8.046680   2.864409   3.428549
H    1.476632   0.034979   2.095498
H    0.776186  -2.146993  -0.349543
H    0.523700   1.145117  -0.920070
H    5.388932  -1.880674  -0.005216
H    4.693229   3.926076  -0.930237
H    9.119176   3.981313  -2.211169
H    9.389482   0.663615  -1.870829
H   11.484659   2.809305   1.756708

