%chk=mol_0866.chk
# wB97XD/Def2SVP opt freq pop=full gfinput

C 4 H 8 O 2

1 2
O    1.00468957   0.02809999  -0.03490999
C    2.41899920   0.01658999  -0.00561000
C    2.96434879   1.12665963   0.85733968
C    4.35149860   0.61606973   1.17769957
O    4.27414846  -0.81864965   1.21566951
C    3.00210881  -1.20940959   0.67782974
H    0.71381974  -0.73883975  -0.55790979
H    2.80308890   0.11040996  -1.02803969
H    2.36763906   1.22908950   1.77198935
H    2.96968889   2.10150933   0.36176986
H    5.06553793   0.88872969   0.39311987
H    4.72638798   0.98935968   2.13488936
H    3.13976884  -2.04163933  -0.01903999
H    2.36771917  -1.56105947   1.49909937

