%chk=mol_6640.chk
# wB97XD/Def2SVP opt pop=full gfinput

C 4 H 6 N 2 S 1

1 2
N    1.647199   0.150687   0.222496
C    4.207192   0.047640   0.153748
C    5.868034   2.051260  -0.053933
N    5.130720   4.499816  -0.134416
C    8.431712   1.274583  -0.160324
C    8.660860  -1.313473   0.013512
S    5.786266  -2.770868   0.294703
H    0.823202   1.653303  -0.642205
H    0.714071  -1.491693  -0.110473
H    6.416282   5.890049   0.175385
H    3.402603   4.942201   0.577557
H   10.035882   2.528397  -0.341114
H   10.375390  -2.423498  -0.005197

