%chk=mol_4884.chk
# wB97XD/Def2SVP opt freq pop=full gfinput

C 4 H 9 N 1 O 2

1 2
C    2.32474899  -1.13335967   0.77666968
C    3.78305864  -0.91421962   0.42614985
O    3.97098851   0.46640983   0.12222996
C    5.32514811   0.73786974  -0.24568990
C    5.55528784   2.22395921  -0.52093983
N    4.45813847   3.01829910  -0.35599986
O    6.63814783   2.68805885  -0.86213964
H    2.13693929  -2.18109918   1.02750957
H    1.68042934  -0.84995967  -0.06208998
H    2.03394914  -0.50808984   1.62721932
H    4.05349874  -1.52608943  -0.44150984
H    4.41591835  -1.19420958   1.27552950
H    5.57228756   0.18601993  -1.15875947
H    5.99483776   0.44301984   0.56921977
H    3.57657862   2.59729886  -0.08403997
H    4.52767801   4.01115847  -0.52298981

