%chk=mol_5926.chk
# wB97XD/Def2SVP opt pop=full gfinput

C 6 H 13 N 1

1 2
C    1.886495  -0.020919   0.100023
C    4.773694   0.030009   0.018557
C    5.670312   0.161458  -2.738100
C    5.835493   2.193991   1.606267
C    8.448758   1.271975   2.333793
C    8.157570  -1.578054   2.521934
N    5.773378  -2.239420   1.274318
H    1.181287  -0.178938   2.043229
H    1.127203  -1.626298  -0.968560
H    1.092753   1.712375  -0.709970
H    7.734989   0.133150  -2.895590
H    5.002748   1.901783  -3.644601
H    4.943845  -1.436116  -3.840831
H    4.712637   2.483988   3.326069
H    5.910402   3.994579   0.588347
H    9.812384   1.752324   0.849734
H    9.106326   2.117835   4.101310
H    9.761663  -2.545045   1.644364
H    8.063386  -2.174848   4.502518
H    6.035653  -3.678125   0.021562

