%chk=mol_1066.chk
# wB97XD/Def2SVP opt pop=full gfinput

C 4 H 7 N 1 O 1

1 2
C    2.135787  -0.477496  -0.430763
O    4.535040   0.064043   0.647175
C    5.468886   2.529493   0.000000
C    4.469637   4.452195   1.905978
C    8.197651   2.529493   0.000000
N   10.372745   2.529493   0.000000
H    1.577562  -2.378296   0.157225
H    2.243313  -0.436489  -2.494344
H    0.705680   0.857633   0.235384
H    4.809542   3.044424  -1.897417
H    5.003182   3.928117   3.838072
H    2.403580   4.538631   1.864139
H    5.202322   6.349650   1.523100

