%chk=mol_5520.chk
# wB97XD/Def2SVP opt pop=full gfinput

C 4 H 10 N 2 O 1

1 2
N    1.935042   0.075986   0.254735
C    4.666546   0.029291  -0.131619
C    5.932247   1.988975   1.618456
C    7.810635  -0.082260   2.459025
N   10.054193  -0.020315   0.816154
C    5.879146  -2.094138   1.513463
O    6.866207  -4.257723   0.166768
H    1.044830  -1.488386  -0.438927
H    1.061516   1.587842  -0.557356
H    5.277684   0.072377  -2.106742
H    4.752812   2.662416   3.187987
H    6.726556   3.648419   0.672308
H    8.245348  -0.125629   4.477082
H    9.771471   0.306457  -1.056168
H   11.215714  -1.544643   1.007375
H    4.663088  -2.750534   3.063775
H    8.105092  -3.546676  -0.982582

