%chk=mol_2444.chk
# wB97XD/Def2SVP opt pop=full gfinput

C 5 H 8 O 2

1 2
C    1.737036   0.016705   0.296404
C    4.600670   0.007011  -0.067142
C    5.972366   1.892995   1.671690
O    6.793017  -0.110152   3.336047
C    5.951900  -2.000313   1.546873
C    5.364233   0.056767  -2.899993
O    4.858694  -1.566564  -4.487665
H    1.217135  -0.019483   2.300590
H    0.874168  -1.634216  -0.605733
H    0.898092   1.714019  -0.541293
H    4.778759   3.264559   2.656860
H    7.595244   2.879073   0.849432
H    7.563950  -2.944722   0.657398
H    4.744630  -3.418496   2.444644
H    6.455153   1.734995  -3.484844

