%chk=mol_1617.chk
# wB97XD/Def2SVP opt pop=full gfinput

C 6 H 11 N 1

1 2
C    1.458188   0.026343  -0.092729
N    4.163312   0.085661   0.360900
C    5.734714  -1.564674  -1.155813
C    5.024271  -2.764934  -3.622038
C    5.530888  -0.708118  -5.594818
C    5.037594   1.795523  -4.228187
C    5.738664   1.278381  -1.534533
H    0.611818   1.783920   0.597834
H    0.617449  -1.523176   0.991161
H    0.863699  -0.207964  -2.057099
H    7.358386  -2.415826  -0.250086
H    6.182787  -4.435716  -4.005860
H    3.046597  -3.367265  -3.654296
H    7.523756  -0.789490  -6.164854
H    4.378590  -0.931030  -7.296384
H    6.207542   3.301125  -5.034193
H    3.063662   2.382926  -4.421317
H    7.366870   2.331695  -0.877853

