%chk=mol_4213.chk
# wB97XD/Def2SVP opt pop=full gfinput

C 4 H 5 N 1 O 2

1 2
C    1.812720   0.006047   0.072036
C    4.330327   0.168148   0.181300
O    5.512048   2.451031   0.608227
C    8.133627   2.252006  -0.027136
O    9.343751   0.063098   1.016937
N    8.315759  -2.234204   0.094165
C    5.889521  -2.134143  -0.201728
H    0.661574   1.681667   0.342022
H    0.838075  -1.763530  -0.266603
H    9.088997   3.917270   0.738543
H    8.375493   2.280578  -2.087562
H    4.882693  -3.851791  -0.811902

