%chk=mol_5746.chk
# wB97XD/Def2SVP opt freq pop=full gfinput

C 5 H 9 N 1 O 1

1 2
N    4.05966854  -2.09238935  -0.15843993
C    3.81612849  -0.92190969   0.66867971
C    3.10172868   0.11653996  -0.12713996
C    3.55303860   1.36154950  -0.31762990
O    2.84484911   2.28213930  -1.04794955
C    3.36054873   3.54069853  -1.22174954
C    2.70065904   4.48295784  -1.89677930
H    4.56501818  -2.78738880   0.38780984
H    4.67747831  -1.83265936  -0.92630965
H    4.76651859  -0.54542977   1.06283963
H    3.19442868  -1.20762956   1.52365947
H    2.14639902  -0.16969994  -0.56114978
H    4.49007845   1.71520936   0.08889997
H    4.33110809   3.71665859  -0.78004974
H    1.72740936   4.27814817  -2.33030915
H    3.12091875   5.47443771  -2.02730918

