%chk=mol_1524.chk
# wB97XD/Def2SVP opt freq pop=full gfinput

C 6 H 13 N 1

1 2
C    0.92832971   1.92832923   0.63022977
C    2.42794895   2.13891935   0.77802968
N    3.12763882   1.45704937  -0.30845988
C    4.58505821   1.52763939  -0.18586993
C    5.19940805   0.60224974  -1.23935962
C    5.09943819   2.92970896  -0.38781986
C    5.80908823   3.61084867   0.52225977
H    0.39493984   2.44439912   1.43502951
H    0.67102975   0.86513966   0.68269974
H    0.56301981   2.32426906  -0.32330987
H    2.74623895   1.74079931   1.74826932
H    2.63270903   3.21511889   0.76651973
H    2.83495879   1.83380938  -1.20778954
H    4.88395834   1.14497960   0.79854971
H    4.92959785   0.90613967  -2.25810909
H    4.86218834  -0.43095985  -1.09708965
H    6.29342794   0.60404974  -1.17040956
H    4.87775803   3.40668869  -1.34001958
H    6.05741787   3.18188882   1.48837948
H    6.15291786   4.61998796   0.31763989

