%chk=mol_1428.chk
# wB97XD/Def2SVP opt pop=full gfinput

C 5 H 12 N 2

1 2
C    2.592723  -1.468714   1.485192
C    4.546549  -0.415872  -0.378758
C    6.286458  -2.539962  -1.300623
N    3.237535   0.952989  -2.448821
C    5.040032   2.560484  -3.829530
N    1.702511  -0.489156  -3.932066
C   -0.338733   0.673857  -4.596740
H    1.352137   0.034204   2.185185
H    3.535904  -2.310776   3.125116
H    1.409792  -2.932326   0.621512
H    5.693216   0.941499   0.692301
H    5.246031  -3.971921  -2.374233
H    7.179126  -3.491307   0.307950
H    7.807366  -1.814005  -2.499522
H    6.109900   3.772611  -2.537184
H    4.024493   3.823615  -5.118890
H    6.364106   1.443770  -4.961268
H   -1.728665  -0.299068  -5.801497
H   -0.798617   2.626341  -4.017822

