%chk=mol_3920.chk
# wB97XD/Def2SVP opt freq pop=full gfinput

C 7 H 12

1 2
C    1.08080959  -0.44052982   0.49451983
C    2.57689905  -0.29743990   0.26533991
C    2.96671891   1.15634954  -0.00108000
C    4.47264814   1.29463959  -0.23059991
C    4.86625814   2.74918890  -0.48708981
C    6.31576777   2.87428904  -0.70098972
C    7.49951744   2.97786903  -0.87498969
H    0.82558966  -1.48709941   0.68807971
H    0.51615983  -0.10978996  -0.38299987
H    0.75716972   0.15289994   1.35557961
H    2.87216902  -0.92409968  -0.58425981
H    3.11259866  -0.67094976   1.14570963
H    2.66590905   1.77901924   0.85033971
H    2.42530918   1.52725947  -0.88004971
H    4.77326822   0.67288977  -1.08383965
H    5.01462793   0.91248965   0.64409977
H    4.56840849   3.37097859   0.36503989
H    4.33297825   3.12975883  -1.36569941
H    8.55003643   3.06848884  -1.02877963

