%chk=mol_5168.chk
# wB97XD/Def2SVP opt pop=full gfinput

C 4 H 10 N 2 O 1

1 2
C    1.774661  -0.332516   0.075041
N    4.519337  -0.179278   0.217659
C    5.392258   2.406094  -0.274804
C    8.274222   2.624735  -0.125062
O    8.966542   5.182234  -0.666204
N   11.609702   5.375609  -0.578521
C   12.233709   7.693189  -0.996453
H    1.171422  -2.271753   0.467632
H    1.082435   0.180696  -1.806370
H    0.881708   0.893009   1.482925
H    5.289854  -1.375116  -1.083059
H    4.558208   3.718962   1.096967
H    4.768025   3.036582  -2.149771
H    9.165645   1.370940  -1.513274
H    8.941372   2.122295   1.770579
H   14.239899   8.242759  -1.004767
H   10.837088   9.198658  -1.354594

