%chk=mol_2063.chk
# wB97XD/Def2SVP opt pop=full gfinput

C 6 H 9 N 1

1 2
N    1.804859  -0.006274  -0.035413
C    4.567827   0.008428   0.020088
C    5.626451   2.707637   0.000000
C    8.355216   2.707637   0.000000
C   10.604293   2.707637   0.000000
C   13.261248   2.707637   0.000000
C   14.586664   4.858637  -0.021637
H    1.186068  -1.829482  -0.047697
H    1.187069   0.777811  -1.682234
H    5.282087  -1.052124  -1.609631
H    5.207103  -0.984566   1.721673
H    4.921017   3.741015   1.652263
H    4.929596   3.714030  -1.672748
H   14.234665   0.901324   0.020012
H   13.666821   6.692862  -0.039703
H   16.636450   4.823998  -0.019578

