%chk=mol_4935.chk
# wB97XD/Def2SVP opt pop=full gfinput

C 4 H 10 N 2 O 1

1 2
C    9.164756   3.149531  -3.459238
C    9.050995   3.031593  -0.599213
O   11.108566   4.490121   0.387640
N   10.927190   4.388416   3.035335
C   12.885627   2.823024   4.154582
C   10.314730   6.680957   4.089273
N    9.391637   8.626373   2.950089
H    7.645794   2.031399  -4.305514
H   10.982635   2.437992  -4.148119
H    8.997326   5.106267  -4.114501
H    9.221221   1.065635   0.027250
H    7.248914   3.808082   0.062399
H   12.935346   0.965574   3.245453
H   12.520437   2.528831   6.169899
H   14.741715   3.711120   3.939077
H   10.660456   6.763122   6.142971
H    9.270222   8.137293   1.073591

