%chk=mol_5494.chk
# wB97XD/Def2SVP opt freq pop=full gfinput

C 4 H 8 N 2 O 1

1 2
N    0.87878966  -0.00644000  -0.23653992
C    2.30368900  -0.25221992  -0.02639999
C    3.11150885  -0.84980965  -1.13771951
C    3.31517887   0.59311980  -0.76495969
N    4.52000856   1.01836956  -0.13663995
C    4.56903839   1.97681928   0.83477968
O    5.61017799   2.36043906   1.34896946
H    0.52812982   0.68924969   0.42213985
H    0.33808988  -0.85370970  -0.06076998
H    2.56592917  -0.56870979   0.98150963
H    2.61827898  -1.05990970  -2.07975912
H    3.87764835  -1.56814945  -0.87176967
H    2.92861891   1.32619953  -1.47021949
H    5.41373777   0.65487975  -0.44576982
H    3.57857871   2.36996913   1.11642957

