%chk=mol_2680.chk
# wB97XD/Def2SVP opt freq pop=full gfinput

C 5 H 6 O 2

1 2
C    1.66213930  -0.38980985  -1.24249959
C    2.14119935   0.25733992  -0.16966994
C    3.23012877   1.30038953  -0.14830993
O    3.72457838   1.59230947  -1.47867954
C    3.54582882   2.95439887  -1.52772939
C    2.99280906   3.44437885  -0.43800986
O    2.71684885   2.48748922   0.50800985
H    0.86877966  -1.12360954  -1.14139950
H    2.04391909  -0.19877993  -2.24118900
H    1.71655941   0.02715999   0.80449969
H    4.07277870   0.92700964   0.44755983
H    3.85647869   3.44859862  -2.42922902
H    2.72176886   4.45584822  -0.19400991

