%chk=mol_6004.chk
# wB97XD/Def2SVP opt pop=full gfinput

C 6 H 13 N 1

1 2
C    1.974953  -0.053347  -0.055577
C    4.850285   0.012945   0.042953
C    5.812231   2.144896   1.721182
C    8.478578   1.298714   2.318618
C    8.262903  -1.560668   2.522028
N    5.905527  -2.270241   1.231912
C    6.298759  -4.315076  -0.574798
H    1.299810  -1.584403  -1.271937
H    1.233689   1.726662  -0.807537
H    1.155586  -0.331269   1.826779
H    5.613639   0.276731  -1.869525
H    4.706741   2.299816   3.468592
H    5.776553   3.979329   0.766189
H    9.737891   1.798490   0.749824
H    9.212850   2.168196   4.043787
H    9.956098  -2.469721   1.749149
H    8.108134  -2.120405   4.510190
H    4.517806  -4.858354  -1.477558
H    7.017252  -6.000013   0.389605
H    7.646266  -3.794381  -2.060198

