%chk=mol_5860.chk
# wB97XD/Def2SVP opt freq pop=full gfinput

C 6 H 13 N 1

1 2
C    0.91099966  -0.03032999   0.11699996
C    2.43320918  -0.04913998  -0.03000999
C    2.83349895   0.03129999  -1.50818932
C    3.15574884   1.03471959   0.83743972
C    4.19963837  -0.04037999   1.21321952
C    3.11438870  -1.09645963   0.91615969
N    3.69529867  -2.20522904   0.17079994
H    0.60573983  -0.03144999   1.16869962
H    0.46560982  -0.90956968  -0.35977986
H    0.48335981   0.86323971  -0.34985989
H    3.91964841   0.06780998  -1.63995945
H    2.41976905   0.93341964  -1.97206926
H    2.45428920  -0.83297968  -2.06309915
H    2.57567883   1.39082944   1.69699943
H    3.55093884   1.90448928   0.30470991
H    5.07416821  -0.04251998   0.55027980
H    4.55154848  -0.00541000   2.24837899
H    2.52989888  -1.39208949   1.79389930
H    4.34629869  -1.94442928  -0.56773978
H    3.00255871  -2.81409883  -0.26222989

