%chk=mol_6199.chk
# wB97XD/Def2SVP opt freq pop=full gfinput

C 5 H 3 N 1 O 1

1 2
O    0.97569966  -0.03064999   0.00000000
C    2.19749928  -0.02526999  -0.00000000
C    2.93058896   1.21762955   0.00000000
C    3.52566886   2.24833918   0.00000000
C    4.24766827   3.49887872   0.00000000
C    3.64443851   4.81084824   0.00000000
N    3.16360879   5.85660744   0.00000000
H    2.80802894  -0.94227964  -0.00000000
H    4.92592812   3.46821880  -0.86495966
H    4.92592812   3.46821880   0.86495966

