%chk=mol_3869.chk
# wB97XD/Def2SVP opt freq pop=full gfinput

C 4 H 3 N 1 O 2

1 2
C    2.04020929   0.05444998   0.52760983
O    1.51804948   0.58469981  -0.72336972
C    2.51041889   1.49181938  -0.75802976
C    2.54247904   2.84551883  -0.81745970
O    3.20100880   3.27159882   0.31590986
N    3.42127872   2.16731906   1.17369962
C    3.06046891   1.11649954   0.44199985
H    2.40977931  -0.96739966   0.40080985
H    1.34565949   0.11282995   1.36993945
H    2.07988930   3.62033868  -1.40770948

