%chk=mol_6495.chk
# wB97XD/Def2SVP opt pop=full gfinput

C 6 H 6 S 1

1 2
C    5.161144  -2.321604   0.777282
C    4.241906  -0.010242   0.313317
C    5.716043   2.250361   0.219416
C    4.820313   4.677374  -0.212840
C    6.746776   6.556197  -0.199347
C    9.089790   5.529792   0.242376
S    8.951387   2.331336   0.635420
H    3.898392  -3.938435   0.814604
H    7.142787  -2.703593   1.130850
H    2.222186   0.178976  -0.015269
H    2.840258   5.088201  -0.527725
H    6.426996   8.554790  -0.498699
H   10.883840   6.500091   0.354588

