%chk=mol_4059.chk
# wB97XD/Def2SVP opt freq pop=full gfinput

C 4 H 6 N 2 O 1

1 2
C    1.10285962  -0.08325997   0.16928995
C    2.42368913  -0.04002998  -0.02132999
C    3.28824878   1.19045949   0.02333999
O    4.62105846   0.70285970  -0.26652992
C    4.55242825  -0.64766973  -0.44850984
N    5.60480785  -1.31965947  -0.71964973
N    3.27382874  -1.06167960  -0.29805991
H    0.55266982  -1.01662958   0.11653996
H    0.53714979   0.81823969   0.38191986
H    3.29836869   1.65426934   1.01385963
H    3.01202893   1.92005920  -0.74322975
H    5.35845804  -2.30436897  -0.82029969
H    2.96522903  -2.01373911  -0.39657986

