%chk=mol_1174.chk
# wB97XD/Def2SVP opt pop=full gfinput

C 6 H 11 N 1

1 2
C    6.432590  -1.365478  -1.200071
C    5.116415  -0.031124   0.982053
C    5.976372   2.727895   1.350644
C    4.365702   3.997659   3.398710
C    8.818917   3.035524   1.899950
C    9.659732   1.704892   4.190184
N   10.328846   0.657549   5.996762
H    5.605854  -3.240880  -1.485381
H    8.449797  -1.624805  -0.829628
H    6.218635  -0.299408  -2.959802
H    5.400648  -1.123159   2.719410
H    3.076852  -0.052515   0.607641
H    5.595517   3.741809  -0.421107
H    4.567884   3.054062   5.229231
H    2.361137   3.949887   2.883401
H    4.903821   5.982571   3.632167
H    9.257372   5.052239   2.095498
H    9.923065   2.371871   0.279566

