%chk=mol_1258.chk
# wB97XD/Def2SVP opt freq pop=full gfinput

C 6 H 9 N 1

1 2
C    1.04134965  -0.31299990  -0.11766995
C    2.51325893  -0.05209998  -0.10840996
C    3.13901877   1.13798952   0.00000000
C    2.42793894   2.47149920   0.06554998
N    2.29771924   2.94829893   1.43959939
C    4.54501867   1.13798952   0.00000000
C    5.73517752   1.13798952   0.00000000
H    0.80248970  -1.08198965   0.62486976
H    0.73505968  -0.68375975  -1.10096967
H    0.44019982   0.56691980   0.12279996
H    3.12178898  -0.95407963  -0.17920993
H    1.43695939   2.42113924  -0.39705986
H    2.98658872   3.21479869  -0.51646978
H    1.75961936   2.26799893   1.97308934
H    1.75828946   3.81087852   1.44245946
H    6.79990768   1.14158952   0.00658000

