%chk=mol_4717.chk
# wB97XD/Def2SVP opt freq pop=full gfinput

C 7 H 14

1 2
C    1.05167961   0.22879992   0.84675968
C    2.52029896   0.04711998   0.49906981
C    3.28835869   1.36415946   0.60226977
C    4.75207853   1.15510952   0.23932990
C    5.68326807   2.37707901   0.46380985
C    6.77874756   1.37509954   0.88033968
C    5.64408827   0.40427986   1.26526952
H    0.52143979  -0.72486973   0.76250970
H    0.57390982   0.94426966   0.17019995
H    0.93417966   0.59331983   1.87208927
H    2.60496902  -0.35531986  -0.51762980
H    2.96001887  -0.69878972   1.17177951
H    3.19707870   1.76906931   1.61722946
H    2.84599876   2.10058928  -0.07903997
H    4.85915804   0.75033975  -0.77801973
H    5.37097788   3.04586887   1.27476954
H    5.90297794   2.97538877  -0.42429984
H    7.39599752   1.02356958   0.04577998
H    7.43015766   1.69404936   1.69756937
H    5.83142805  -0.65059978   1.04844964
H    5.31915808   0.50160980   2.30790901

