%chk=mol_4385.chk
# wB97XD/Def2SVP opt freq pop=full gfinput

C 4 H 10 N 2 O 1

1 2
C    1.84379923   0.52048981   1.36072946
C    2.26133919  -0.03612999   0.02165999
C    3.12633896  -1.28168952   0.02674999
C    2.24476910  -2.52137899  -0.05975998
N    3.05412889  -3.73753881   0.00448000
N    1.82336926   0.55884975  -1.04918957
O    2.26007915  -0.07964997  -2.21214914
H    1.24506962   1.42647946   1.23400950
H    2.73436904   0.76118976   1.94746923
H    1.25159955  -0.22666991   1.89539921
H    3.71224856  -1.29219949   0.95353967
H    3.84213853  -1.24498963  -0.80048972
H    1.66493928  -2.51960921  -0.98980963
H    1.52506948  -2.53295898   0.76636970
H    3.68598866  -3.76285863  -0.79608965
H    2.44534898  -4.54887819  -0.09628996
H    1.89392936   0.49135980  -2.91354895

