%chk=mol_1330.chk
# wB97XD/Def2SVP opt freq pop=full gfinput

C 5 H 8 N 2

1 2
C    1.42056954  -0.43329984   0.99328965
C    2.31302905  -0.14425994   0.03777999
C    2.93874884   1.20453954  -0.16082993
C    4.42540836   1.06675959   0.03275999
N    5.22245836   0.97352964  -0.98338962
N    6.54077768   0.83519971  -0.56297982
C    7.31470728   0.60733980  -1.57009935
H    1.00534964  -1.43333948   1.07714951
H    1.08089960   0.31089988   1.70680940
H    2.61551905  -0.92657965  -0.65715975
H    2.56482887   1.94158924   0.55717981
H    2.72684908   1.56325936  -1.17323959
H    4.79430819   1.02165961   1.07338953
H    8.39557648   0.47291982  -1.41158950
H    6.94702721   0.53388983  -2.60811925

