%chk=mol_6984.chk
# wB97XD/Def2SVP opt pop=full gfinput

C 5 H 12 N 2

1 2
C    4.595058  -0.895674  -2.916395
C    4.579638   0.079425  -0.211876
C    6.281752   2.388425   0.068446
N    5.183235   4.724958  -1.064388
C    6.169540   6.187266   1.121080
C    6.185168   3.724556   2.678290
N    8.594153   3.438224   4.017123
H    3.421784  -2.591098  -3.073677
H    6.514056  -1.379273  -3.518160
H    3.856156   0.520998  -4.229188
H    5.258730  -1.425402   1.040786
H    2.633277   0.504519   0.361561
H    8.201865   2.014788  -0.633266
H    3.255979   4.716492  -1.143341
H    8.014027   7.051778   0.734688
H    4.891896   7.661479   1.807655
H    4.487457   3.397198   3.813581
H   10.145354   3.846878   2.945176
H    8.884830   1.661353   4.701128

