%chk=mol_4586.chk
# wB97XD/Def2SVP opt freq pop=full gfinput

C 4 H 10 N 2 O 1

1 2
C    1.03520966   0.07081997   0.03322999
C    2.55838895  -0.01741999   0.06250998
C    3.04160881  -0.87231964   1.22949958
O    3.01035881  -0.63904971  -1.14210963
C    3.16109872   1.38168955   0.14089994
N    3.06022882   2.10898924   1.21030951
N    3.64053845   3.32513881   1.08336961
H    0.69577974   0.69356978  -0.80332971
H    0.63449979   0.50414979   0.95609963
H    0.58862978  -0.91973960  -0.11084996
H    2.69838881  -0.48222983   2.19355917
H    4.13709831  -0.91373962   1.25359952
H    2.69064879  -1.90587938   1.12889957
H    2.53910899  -0.23077992  -1.88890934
H    3.65799856   1.75754929  -0.77482969
H    3.44315863   3.88157845   1.91935921
H    4.66088867   3.24453878   1.05665958

