%chk=mol_3376.chk
# wB97XD/Def2SVP opt pop=full gfinput

C 6 H 10 O 1

1 2
C    4.855576  -1.141017   1.808751
O    4.010452   1.331747   1.192001
C    5.769504   3.129122   0.491574
C    4.598044   5.531739  -0.161968
C    2.253045   6.236909   0.484582
C    8.281347   2.732298   0.345140
C   10.315864   4.579146  -0.339281
H    3.196528  -2.277687   2.288836
H    6.100830  -1.107928   3.460240
H    5.786247  -2.033893   0.190995
H    5.701909   6.853488  -1.277795
H    1.028994   5.031434   1.605984
H    1.513878   8.061080  -0.088250
H    9.041017   0.882616   0.810617
H    9.650964   6.518894  -0.565104
H   11.227165   3.994900  -2.101111
H   11.752377   4.597118   1.150314

