%chk=mol_1135.chk
# wB97XD/Def2SVP opt pop=full gfinput

C 4 H 7 N 1 O 1

1 2
O    2.549959  -0.037001   1.667475
C    4.428781   0.202427   0.341360
N    5.484779   2.439447  -0.358746
C    5.092718   4.935436   0.700333
C    7.297442   5.783866  -0.983565
C    7.986077   2.987015  -1.322903
H    5.463161  -1.433508  -0.424055
H    5.447438   5.015692   2.735738
H    3.258417   5.766820   0.243831
H    6.703066   6.720187  -2.733394
H    8.729552   6.944422  -0.051495
H    8.289151   2.380072  -3.271343
H    9.494589   2.288534  -0.095601

