%chk=mol_0654.chk
# wB97XD/Def2SVP opt freq pop=full gfinput

C 4 H 8 O 2

1 2
C    1.16890955  -0.05651998   0.16960993
C    2.65874887   0.05476998  -0.08645996
O    3.19968891   1.13917959   0.67874980
C    4.44937849   0.63786978   1.14773965
C    4.16660833  -0.82345968   1.36333954
O    3.31448865  -1.16936958   0.27110991
H    0.73647970  -0.88765967  -0.39576986
H    0.65608972   0.87196964  -0.09968996
H    0.97269958  -0.24392991   1.23097956
H    2.84869885   0.24548991  -1.14818966
H    5.19734812   0.79419971   0.36283988
H    4.76177788   1.15871954   2.05634928
H    5.06665850  -1.44462943   1.36303949
H    3.61103868  -0.99265963   2.29172897

