%chk=mol_1917.chk
# wB97XD/Def2SVP opt pop=full gfinput

C 5 H 10 N 2

1 2
N    1.940503   0.079198   0.343363
C    4.653130  -0.158567  -0.063192
C    5.346470  -2.850255  -0.912322
C    5.048554  -2.821248  -3.798765
C    5.818316  -0.189407  -4.527311
N    3.998188   1.866520  -4.520697
C    5.517131   1.471832  -2.247281
H    1.455883   1.940446   0.340963
H    1.458339  -0.649858   2.052658
H    5.663188   0.350998   1.669252
H    4.217963  -4.330950  -0.011357
H    7.334821  -3.210664  -0.444199
H    6.256524  -4.248066  -4.683346
H    3.086414  -3.197152  -4.346673
H    7.496789  -0.040686  -5.678514
H    4.649029   3.370024  -5.533307
H    6.979325   2.823667  -1.794597

