%chk=mol_2564.chk
# wB97XD/Def2SVP opt freq pop=full gfinput

C 5 H 10 O 2

1 2
C    0.96532965   0.03382999   0.07914997
C    2.47816896  -0.00459000  -0.11984995
O    2.93663883  -1.27293956  -0.58396977
C    2.64090919  -1.50954950  -1.95425928
C    3.18404889  -0.38546985  -2.81443906
C    2.66186905   0.94007969  -2.29508901
O    2.95435905   1.08167970  -0.91076964
H    0.65979975   0.99235964   0.51005977
H    0.64412975  -0.77874970   0.73813975
H    0.42025983  -0.08191997  -0.86105967
H    2.93096900   0.12899995   0.86864966
H    3.10962868  -2.45743895  -2.23783922
H    1.56044948  -1.63314939  -2.08762932
H    4.27800846  -0.38372988  -2.73535895
H    2.91700888  -0.52935982  -3.86548853
H    3.14722896   1.76658928  -2.82510877
H    1.58413947   1.04141963  -2.46173906

