%chk=mol_3635.chk
# wB97XD/Def2SVP opt pop=full gfinput

C 6 H 6 O 1

1 2
O    4.987195  -2.077848   0.083734
C    3.996903   0.012170   0.010148
C    5.481566   2.344772   0.004573
C    4.543431   4.700429  -0.073095
C    6.623547   6.466397  -0.049057
C    8.813305   5.191021   0.042689
C    8.305838   2.392828   0.087003
H    1.928579   0.252694  -0.056068
H    2.580270   5.248639  -0.142731
H    6.409611   8.495604  -0.098417
H   10.676026   6.024258   0.080068
H    9.136920   1.466050  -1.563786
H    9.036879   1.537821   1.821734

