%chk=mol_0320.chk
# wB97XD/Def2SVP opt pop=full gfinput

C 5 H 9 N 1

1 2
C    2.749514   0.858219  -2.532195
C    4.307631  -0.214087  -0.851303
C    5.961443   1.210143   0.967426
C    8.734597   0.722008   0.602577
C   10.476869   0.521546   2.848290
N    9.812781  -1.708955   1.369409
H    1.604774  -0.303660  -3.778337
H    2.575243   2.893889  -2.705521
H    4.411603  -2.266084  -0.742832
H    5.381524   0.699690   2.891716
H    5.637998   3.250480   0.788961
H    9.458854   1.540259  -1.130340
H    9.684639   0.597928   4.733877
H   12.398323   1.199957   2.670712
H   11.246686  -2.212529   0.177993

