%chk=mol_1130.chk
# wB97XD/Def2SVP opt pop=full gfinput

C 4 H 5 N 1 O 1

1 2
O    4.580111  -0.945147   2.563772
C    4.426513   0.043067   0.074153
C    5.439180   2.690157   0.064213
C    3.923128   4.722407  -0.127934
C    8.114125   3.025414   0.167505
N   10.288368   3.315506   0.188840
H    4.026345  -2.695467   2.486539
H    2.445740  -0.020636  -0.525401
H    5.517282  -1.167511  -1.202830
H    1.882224   4.530921  -0.224688
H    4.679661   6.631937  -0.159304

