%chk=mol_0514.chk
# wB97XD/Def2SVP opt pop=full gfinput

C 4 H 6 N 2

1 2
C    1.876744  -0.128539  -0.021978
N    4.593301  -0.058657  -0.500399
N    5.652227   2.277347  -0.394424
C    7.939949   2.335664  -1.222502
C    9.033930   4.814701  -1.073534
C    9.956967   6.883365  -0.953367
H    1.184027  -2.067606  -0.207114
H    0.862112   1.043904  -1.390971
H    1.443222   0.541255   1.886325
H    5.450915  -1.259540   0.750599
H    9.039769   0.740149  -1.982531
H   10.754053   8.729231  -0.840531

