%chk=mol_4301.chk
# wB97XD/Def2SVP opt freq pop=full gfinput

C 5 H 3 N 1 O 1

1 2
C    1.00971961  -0.05470998  -0.12168995
C    2.20220923   0.04458998  -0.02397999
C    3.62302852   0.16408993   0.09643997
O    4.33739805  -0.53114980  -0.93529963
C    4.39511871   0.90353966  -0.96589965
C    5.67636776   1.44685948  -0.63898975
N    6.70405769   1.90891933  -0.36187986
H   -0.04812998  -0.15005995  -0.20895992
H    4.03388834   0.11480996   1.09897959
H    3.84574842   1.40324950  -1.75348926

