%chk=mol_6444.chk
# wB97XD/Def2SVP opt freq pop=full gfinput

C 6 H 13 N 1

1 2
C    0.99698967   0.01141000  -0.02570999
C    2.51671886   0.01815999   0.03287999
C    3.07254887   1.12734962   0.91128969
C    4.47666836   0.63109976   1.18835950
N    4.33001852  -0.81372970   1.37179959
C    3.11365867  -1.24674964   0.66344970
C    3.41083860  -2.33153915  -0.36563987
H    0.63582975  -0.81033969  -0.65196973
H    0.62411976   0.94956964  -0.44886985
H    0.55802977  -0.10545996   0.97088963
H    2.90754914   0.15144995  -0.98553962
H    2.50449896   1.21913946   1.84480929
H    3.06814885   2.09793925   0.40621984
H    5.12706804   0.83037966   0.32825989
H    4.91606808   1.10419953   2.07088923
H    5.15888786  -1.30116951   1.03686965
H    2.42732906  -1.65736938   1.41418946
H    4.12646866  -1.98476923  -1.11950958
H    2.49596906  -2.63535905  -0.88424969
H    3.83436847  -3.21923876   0.11591996

