%chk=mol_2350.chk
# wB97XD/Def2SVP opt pop=full gfinput

C 6 H 8 O 1

1 2
C    1.876139   0.086776   0.007483
C    4.671573  -0.066877   0.068238
C    6.135620  -2.116399   0.025209
C    8.711732  -1.302834   0.119620
C   10.750029  -2.781507   0.116539
O    8.879389   1.310449   0.220550
C    6.303881   2.222394   0.194510
H    1.016106  -1.791649  -0.102404
H    1.248202   1.172027  -1.637089
H    1.167208   1.013725   1.714794
H    5.520136  -4.057639  -0.063174
H   12.624769  -1.956244   0.193640
H   10.602951  -4.822789   0.038607
H    6.053606   3.439982  -1.458774
H    5.973594   3.310687   1.922192

