%chk=mol_1836.chk
# wB97XD/Def2SVP opt pop=full gfinput

C 5 H 8 N 2

1 2
C    1.945927  -0.531108  -0.892933
N    4.386754   0.038267   0.173118
C    5.551921   2.337138   0.003194
N    4.858070   4.631076  -0.199744
C    2.195011   5.256689  -0.177124
C    8.284446   2.246336   0.078443
C   10.551059   2.156196   0.142448
H    1.614771  -2.571483  -0.812091
H    1.847075   0.048793  -2.875256
H    0.427702   0.376320   0.172759
H    5.599448  -1.447077   0.108754
H    1.989296   7.310991  -0.042141
H    1.224448   4.449965   1.461420
H    1.262791   4.665092  -1.924894
H   12.562332   2.111240   0.201596

