%chk=mol_0647.chk
# wB97XD/Def2SVP opt freq pop=full gfinput

C 4 H 8 O 2

1 2
C    1.01968956   0.05225998   0.12412996
C    2.51677895  -0.08986996  -0.04851998
O    3.23414874   0.95642966   0.65979975
C    4.12151861  -0.02677999   1.24589944
C    3.21869874  -1.18141949   0.78745967
O    3.83796859  -2.27226925   0.07150997
H    0.49865982  -0.79002970  -0.34399986
H    0.66156971   0.97232962  -0.34936985
H    0.73421973   0.08231997   1.18152952
H    2.80318880  -0.08893996  -1.10731947
H    5.11399841   0.01317000   0.78651971
H    4.21001863   0.09582996   2.32916927
H    2.60138893  -1.57481945   1.60296941
H    4.36950827  -1.85645926  -0.62939978

