%chk=mol_3612.chk
# wB97XD/Def2SVP opt pop=full gfinput

C 5 H 6 O 2

1 2
O    1.700716   0.119771   0.647231
C    4.001363  -0.007238   0.281834
C    5.577394   2.353276  -0.179618
O    8.220554   2.269561   0.243246
C    9.311267  -0.058222   0.114650
C    8.107813  -2.266349  -0.008825
C    5.301683  -2.531345   0.015779
H    4.826304   3.838525   1.054826
H    5.260676   2.942341  -2.139907
H   11.355496   0.101932   0.172135
H    9.207785  -3.999775  -0.085057
H    4.672688  -3.419441  -1.743896
H    4.742608  -3.717394   1.616869

