%chk=mol_2938.chk
# wB97XD/Def2SVP opt freq pop=full gfinput

C 6 H 4 O 1

1 2
C    0.99999964   0.00000000   0.00000000
C    2.44399905   0.00000000   0.00000000
C    3.63415861   0.00000000   0.00000000
C    5.07980824  -0.00584000   0.00000000
O    5.69311810  -1.06446970  -0.00000000
C    5.79531765   1.24978960   0.00000000
C    6.39360714   2.29262900   0.00000000
H    0.60596979   1.02086961   0.01167999
H    0.60592973  -0.52052981   0.87824970
H    0.60592973  -0.50029981  -0.88992965
H    6.93043756   3.21287870   0.00000000

