%chk=mol_4074.chk
# wB97XD/Def2SVP opt freq pop=full gfinput

C 4 H 8 N 2 O 1

1 2
C    0.98449963  -0.01787999   0.00857000
C    2.49869895  -0.01961999  -0.01554999
C    3.10229874   1.04913962   0.88558966
O    4.40476799   0.59011978   1.29135942
N    4.36128855  -0.80459970   1.16059959
C    3.17212868  -1.19121957   0.62040979
N    2.70604897  -2.39160895   0.66215974
H    0.58476973  -0.78227973  -0.66523975
H    0.59212977   0.95191962  -0.31290987
H    0.59751981  -0.23010992   1.01078963
H    2.87842894   0.07479998  -1.03963959
H    2.50973892   1.21634960   1.79306936
H    3.20891881   2.00447941   0.36217985
H    4.69181824  -1.34698939   1.95340919
H    1.80670941  -2.45644903   0.17714994

