%chk=mol_2170.chk
# wB97XD/Def2SVP opt freq pop=full gfinput

C 6 H 10 O 1

1 2
C   -1.72439933   0.85453969   0.56529981
C   -1.19305956  -0.28308991  -0.26445991
C   -0.32325989  -1.36271954   0.30228987
C    1.06864965  -1.23202956  -0.32127985
O    1.69845939   0.04543998  -0.15324993
C    0.86240965   1.11507964   0.30163988
C   -0.50770980   1.05511963  -0.30318990
H   -2.65174890   1.32015955   0.24946991
H   -1.60227942   0.81246972   1.64172935
H   -1.73661935  -0.59220982  -1.14884961
H   -0.25506991  -1.26716948   1.39223945
H   -0.74792975  -2.34731913   0.08129998
H    1.74084938  -1.98851919   0.09616996
H    1.01104963  -1.41498947  -1.40079951
H    0.82233971   1.07098961   1.39621949
H    1.35237944   2.05720925   0.03642999
H   -0.59050977   1.63461947  -1.21356952

