%chk=mol_5025.chk
# wB97XD/Def2SVP opt freq pop=full gfinput

C 5 H 11 N 1 O 1

1 2
C    2.10543919  -0.48228982  -1.30092955
N    2.28055906   0.13350995   0.01082000
C    3.22324872   1.24731946  -0.08914997
C    2.48183894   2.52737904  -0.53117985
C    3.18113875   3.26432872   0.63316977
O    4.37695837   4.00296831   0.30712989
C    3.38032866   1.88698936   1.30683947
H    1.38072956  -1.29876959  -1.22429955
H    3.04590893  -0.90022969  -1.67448938
H    1.71681941   0.23274991  -2.03302908
H    2.57378888  -0.58888978   0.66970974
H    4.17251825   1.04770958  -0.59899980
H    1.38937950   2.51475906  -0.43401983
H    2.73771906   2.88392878  -1.53339946
H    2.50353909   3.91860867   1.19272947
H    4.93858814   3.39300871  -0.19953991
H    4.35585833   1.73126936   1.77719939
H    2.59926915   1.65506935   2.04126930

