%chk=mol_5510.chk
# wB97XD/Def2SVP opt freq pop=full gfinput

C 5 H 11 N 1 O 1

1 2
N    0.99348962   0.00032000   0.11781996
C    2.45947909  -0.00262000   0.01244999
C    2.92622876  -1.36058950  -0.51883984
C    2.61345887  -1.51703942  -2.00555921
C    3.13515902  -0.32102987  -2.79249883
O    2.61709905   0.90552968  -2.28409910
C    2.96869898   1.12084949  -0.91561967
H    0.66307974   0.92761970   0.37950984
H    0.69444978  -0.64352977   0.84756964
H    2.86650896   0.15881994   1.01732957
H    2.47505903  -2.18310928   0.04866998
H    4.01107836  -1.44306946  -0.37489983
H    3.05631876  -2.44302917  -2.38868904
H    1.52752948  -1.59355938  -2.13990903
H    4.23084831  -0.28510988  -2.77407885
H    2.82783890  -0.40432984  -3.84023857
H    4.05980825   1.20767951  -0.84254968
H    2.55038905   2.08705926  -0.61163974

