%chk=mol_6996.chk
# wB97XD/Def2SVP opt pop=full gfinput

C 5 H 8 N 2

1 2
C    4.439855  -0.963609  -2.659355
C    4.805744   0.033921   0.008920
C    5.673846   2.710056  -0.002532
N    4.235254   4.740378   0.001436
C    5.861534   6.755676  -0.016705
C    8.326964   5.945135  -0.031067
N    8.184896   3.366377  -0.020409
H    3.781266  -2.923765  -2.608578
H    6.210925  -0.908448  -3.729563
H    3.040248   0.158529  -3.692393
H    6.170976  -1.154868   1.015709
H    3.015757  -0.095979   1.043110
H    5.168174   8.679720  -0.018557
H   10.106955   6.944252  -0.047243
H    9.655084   2.147674  -0.028497

