%chk=mol_1058.chk
# wB97XD/Def2SVP opt freq pop=full gfinput

C 4 H 9 N 1 O 1

1 2
C    1.39160943  -0.23252991  -0.67802972
O    2.78832912   0.01502999  -0.59911978
C    3.06324887   1.22513962   0.10471996
C    4.54664850   1.40679955   0.15872994
C    5.27173805   2.08321929  -0.97423965
N    5.11628771   2.74589896   0.31921989
H    1.23657954  -1.16528964  -1.22814953
H    0.88702965   0.57705975  -1.21525955
H    0.96446961  -0.34366989   0.32392988
H    2.66970897   1.15310955   1.12462962
H    2.57615900   2.06502914  -0.40405986
H    5.04360819   0.59809977   0.68133974
H    4.69145823   2.49137902  -1.79251921
H    6.26456785   1.73688936  -1.23157954
H    5.98733807   2.70544910   0.85203964

