%chk=mol_0244.chk
# wB97XD/Def2SVP opt freq pop=full gfinput

C 4 H 6 N 2

1 2
C    0.42555982   1.42403948   0.31319988
C    1.10792959   0.30562991  -0.44012985
C    1.04734957  -1.09135962   0.05000998
C   -0.43097985  -1.24734950   0.08791997
N   -1.09195960  -0.21673992  -0.33228987
N   -0.24456991   0.76183975  -0.80186969
H    0.74749970   2.43948913   0.11817995
H    0.03675998   1.25801957   1.31014943
H    1.90037930   0.52712983  -1.13840950
H    1.47384953  -1.21768963   1.04747963
H    1.47981942  -1.81308937  -0.64687979
H   -0.89894968  -2.16520905   0.46831983

