%chk=mol_4458.chk
# wB97XD/Def2SVP opt freq pop=full gfinput

C 5 H 11 N 1 O 1

1 2
C    2.94572878  -1.03721964  -0.91044968
C    2.43312907  -0.08518997   0.16293994
C    3.09392881   1.30474961   0.10914996
N    2.41170907   2.20222926   1.04638958
C    4.57309818   1.23645949   0.39392984
C    5.31166792   2.18898916   1.30549955
O    4.92203808   0.87907964   1.74262929
H    2.38886905  -1.97883928  -0.87291968
H    4.00429869  -1.27313948  -0.76742971
H    2.81721902  -0.60778975  -1.90954924
H    2.58906913  -0.54579979   1.14637947
H    1.34884953   0.01821999   0.02892999
H    2.96443892   1.72337937  -0.89612967
H    2.55745912   1.83761930   1.99069929
H    1.40744948   2.16362929   0.88654965
H    5.13612795   0.78324974  -0.41203985
H    4.79108858   3.04054880   1.72507930
H    6.36594772   2.36027908   1.12103951

