%chk=mol_0162.chk
# wB97XD/Def2SVP opt freq pop=full gfinput

C 4 H 11 N 1

1 2
C    1.00979960  -0.02215999   0.01828999
C    2.53876925  -0.00620000  -0.03987999
C    3.02023888  -0.79911971  -1.25801957
C    3.04670906   1.44557941  -0.05561998
N    4.50267839   1.51656938  -0.00639000
H    0.64896977   0.50632977   0.90668970
H    0.63320976  -1.04919958   0.06566998
H    0.57339978   0.45871982  -0.86349964
H    2.91449904  -0.50467980   0.86374968
H    2.69387889  -0.32809988  -2.19130921
H    2.62175894  -1.81900930  -1.23757946
H    4.11185837  -0.87468964  -1.27872956
H    2.64065909   1.98964930   0.80499971
H    2.69723892   1.95834923  -0.95900965
H    4.83876848   1.06957960   0.84552968
H    4.79232836   2.49160886   0.04817998

