%chk=mol_3668.chk
# wB97XD/Def2SVP opt freq pop=full gfinput

C 5 H 8 O 2

1 2
O    2.32914901  -0.27696991   1.47899950
C    2.51953912  -0.02220999   0.09668996
C    2.92384887   1.39150953  -0.07123998
C    4.00425863   1.87524939  -0.67398971
O    4.13456821   3.24489880  -0.69461977
C    2.94696903   3.72299862  -0.02675999
C    2.12309909   2.52561927   0.44465983
H    2.13032913  -1.22422957   1.56303942
H    1.58029950  -0.21702991  -0.43001986
H    3.28475881  -0.70663977  -0.28391990
H    4.80773830   1.34016955  -1.15295959
H    2.38066888   4.34154844  -0.73226976
H    3.25013876   4.35685873   0.81389970
H    1.11422968   2.54907918   0.02117999
H    2.04320931   2.51143909   1.53617942

