%chk=mol_0539.chk
# wB97XD/Def2SVP opt pop=full gfinput

C 4 H 6 N 2

1 2
N    1.762472  -0.065366   0.072131
C    3.953591  -0.030727   0.048453
C    6.675987   0.013341  -0.011508
C    7.962266   1.931546   1.760885
N    9.877108  -0.018028   2.385364
C    8.022624  -1.979242   1.629076
H    7.437697   0.090159  -1.941750
H    6.846724   2.525373   3.404531
H    8.725829   3.620753   0.844178
H   11.444408   0.044106   1.259597
H    8.836964  -3.578556   0.601538
H    6.927641  -2.716481   3.227860

