%chk=mol_4106.chk
# wB97XD/Def2SVP opt freq pop=full gfinput

C 5 H 9 N 1 O 1

1 2
C    0.94131964   0.02915999   0.20866993
C    2.41861916  -0.04925998  -0.11403996
N    3.22842884   0.95911962   0.60834980
C    4.17253828  -0.03649998   1.16362953
C    5.53635788   0.02899999   0.50656980
C    3.22596884  -1.12038958   0.62991977
O    3.15510869  -2.32582903   0.74141973
H    0.41114986  -0.82392973  -0.22652991
H    0.50057977   0.94050962  -0.20895992
H    0.75339973   0.02355999   1.28806949
H    2.61287904  -0.05968998  -1.19339955
H    2.71225905   1.46584940   1.32994950
H    4.22911835  -0.02195999   2.25719929
H    5.46958780   0.01374999  -0.58731979
H    6.14994764  -0.82448971   0.81395972
H    6.06647778   0.94160962   0.80010968

