%chk=mol_2915.chk
# wB97XD/Def2SVP opt freq pop=full gfinput

C 6 H 6 O 1

1 2
C    0.97187966   0.01843999   0.13682996
C    2.44738913  -0.09567996  -0.10473996
C    3.05003881  -1.26960957  -0.35687986
C    3.21370888   1.19396961  -0.04657998
O    2.63565898   2.25055909   0.18754992
C    4.64869833   1.24189949  -0.26227990
C    5.83605766   1.29537952  -0.43908983
H    0.50945979   0.67103970  -0.61107975
H    0.77626967   0.43216982   1.13164961
H    0.47232983  -0.95467961   0.07987997
H    2.47888923  -2.19280910  -0.39507985
H    4.11721849  -1.36012948  -0.53257984
H    6.88835716   1.35575950  -0.59415978

