%chk=mol_0418.chk
# wB97XD/Def2SVP opt freq pop=full gfinput

C 4 H 10 N 2

1 2
C    1.94517934  -0.90729964   1.05659962
C    2.74809885  -0.38216987  -0.11770996
C    2.81333899   1.11935949  -0.06848998
N    3.95360851   1.72380936   0.04254999
N    3.84868860   3.07386899   0.06446998
C    5.10847807   3.79339862   0.21839991
H    1.89035928  -1.99961925   1.02355957
H    0.92388964  -0.51246983   1.04225969
H    2.40166903  -0.61331975   2.00732923
H    2.26568913  -0.66747975  -1.05793965
H    3.75979853  -0.80022967  -0.10522996
H    1.85392928   1.66432941  -0.13248995
H    3.36880875   3.43015862  -0.76545972
H    5.61599827   3.49581885   1.14119959
H    4.91641808   4.86908817   0.27128989
H    5.77374792   3.60286880  -0.62966979

