%chk=mol_1756.chk
# wB97XD/Def2SVP opt pop=full gfinput

C 6 H 15 N 1

1 2
C    2.347588  -0.722008  -0.296574
N    5.048328  -0.200897  -0.193980
C    5.534781   2.522501  -0.156753
C    8.390384   2.994498  -0.057278
C    9.085482   5.813138   0.166485
C   11.932487   6.090644   0.597116
C    8.303608   7.329624  -2.166382
H    2.040772  -2.767239  -0.318438
H    1.485268   0.068446  -2.003507
H    1.376193   0.034601   1.366102
H    5.907378  -0.986324  -1.729591
H    4.641073   3.377205   1.505129
H    4.727263   3.395687  -1.850155
H    9.292766   2.187547  -1.743140
H    9.177361   1.984364   1.576674
H    8.114239   6.610338   1.815819
H   13.012050   5.323586  -0.994090
H   12.518585   5.089940   2.311419
H   12.452578   8.081224   0.824072
H    9.137940   6.540739  -3.888603
H    8.923022   9.298189  -2.002486
H    6.249324   7.354739  -2.397703

