%chk=mol_4551.chk
# wB97XD/Def2SVP opt freq pop=full gfinput

C 5 H 9 N 1 O 1

1 2
C    0.99197960   0.05947998   0.02796999
C    2.50127912  -0.01099000  -0.12692995
C    3.16143870   1.33747947   0.07179997
O    2.55364919   2.38344908   0.26923987
C    4.64106846   1.36472952  -0.07907997
C    5.48201799   1.91289937   1.04547966
N    5.40684795   0.47712982   0.80520970
H    0.54600978  -0.92613965  -0.13442995
H    0.55405980   0.75666970  -0.69295973
H    0.71767974   0.39864987   1.03196967
H    2.75033903  -0.36977986  -1.13210952
H    2.90493894  -0.71740979   0.60606980
H    5.00807810   1.49170947  -1.09013951
H    4.97940826   2.28103900   1.93248928
H    6.41467762   2.40602899   0.80095965
H    6.25558758   0.14620994   0.34247988

