%chk=mol_3056.chk
# wB97XD/Def2SVP opt pop=full gfinput

C 6 H 8 O 1

1 2
C    0.658966   0.528462  -0.024302
C    3.144145  -0.842534  -0.018349
C    3.249970  -3.376960  -0.115179
O    5.178266   0.777150   0.091614
C    7.661385  -0.277450   0.099116
C    9.525221   1.781388   0.212878
C   11.052082   3.455345   0.304888
H    0.561381   1.819391  -1.638279
H    0.452495   1.635199   1.711525
H   -0.952044  -0.764186  -0.149099
H    1.529318  -4.493845  -0.198686
H    5.000744  -4.435867  -0.114725
H    7.964553  -1.376817  -1.630248
H    7.898980  -1.505564   1.750283
H   12.400704   4.950516   0.386373

