%chk=mol_4115.chk
# wB97XD/Def2SVP opt freq pop=full gfinput

C 4 H 6 N 2 O 1

1 2
C    0.99985957   0.00715000  -0.00408000
C    2.48029900   0.04532998  -0.00602000
N    3.24573874   1.11821961  -0.00924000
C    4.53629827   0.65053976  -0.01037000
C    4.55646801  -0.72403967  -0.00784000
O    5.51829815  -1.63499928  -0.00772000
N    3.24224877  -1.09601963  -0.00503000
H    0.58837980   1.02104962   0.00806000
H    0.62894976  -0.52181983   0.87911963
H    0.62674981  -0.50152981  -0.89834970
H    5.37501812   1.33396947  -0.01300000
H    6.36757755  -1.15700960  -0.01015000
H    2.90361905  -2.04639912  -0.00274000

