%chk=mol_2061.chk
# wB97XD/Def2SVP opt freq pop=full gfinput

C 6 H 11 N 1

1 2
N    0.84612966   0.27370989   0.21889992
C    2.27753925  -0.03718999   0.18954994
C    3.11766887   1.23427951   0.01016000
C    4.60627842   0.94348967  -0.02009999
C    5.25393820   0.85885966  -1.19525945
C    5.35717773   0.78861970   1.21859956
C    4.87023830   0.86030966   2.46439910
H    0.31802988  -0.59689975   0.27619991
H    0.57510984   0.71306974  -0.66044974
H    2.47101903  -0.73503971  -0.63373977
H    2.54055905  -0.54916978   1.12107956
H    2.88681912   1.96619928   0.79409975
H    2.82139874   1.72251928  -0.92903966
H    4.73084831   0.97946966  -2.13857913
H    6.32073784   0.66494977  -1.25652957
H    6.42568779   0.60020977   1.11481953
H    3.82467866   1.04597962   2.68346906
H    5.53106785   0.73275971   3.31641889

