%chk=mol_3154.chk
# wB97XD/Def2SVP opt freq pop=full gfinput

C 5 H 8 O 2

1 2
C    3.57116866   4.19851828   2.29561925
C    3.94276857   3.38816857   1.30500948
O    4.36697865   2.11078930   1.55343938
C    4.70759821   1.39432943   0.34677985
C    6.09032774   1.64592946  -0.27120990
O    6.39010763   0.22876991  -0.28911990
C    5.23721790  -0.03171999   0.54889977
H    3.23040891   5.20790768   2.09641933
H    3.59884858   3.86325860   3.32725859
H    3.92271852   3.69437861   0.26749989
H    3.88985848   1.41379941  -0.38645986
H    6.80294704   2.19447899   0.35226986
H    6.07795763   2.06924915  -1.27942955
H    4.60638857  -0.82424974   0.13684995
H    5.53630781  -0.28954989   1.56962943

