%chk=mol_5220.chk
# wB97XD/Def2SVP opt freq pop=full gfinput

C 4 H 8 N 2 O 1

1 2
C    1.41137946  -0.13573995  -1.48263943
N    2.54910898  -0.41217983  -0.64175975
C    3.44956875   0.59331983  -0.36325988
O    3.37904859   1.71820939  -0.84141964
N    4.43520832   0.16172995   0.50015980
C    5.44139814   0.96599966   0.96410960
C    6.41119719   0.50399983   1.75712931
H    0.93328965  -1.08281958  -1.74268937
H    1.73220932   0.38244987  -2.39060903
H    0.70910978   0.49610981  -0.93193966
H    2.42463899  -1.10548961   0.07958997
H    4.45906830  -0.82136965   0.72520971
H    5.41339779   2.00938940   0.65280974
H    6.45832777  -0.53009981   2.07882929
H    7.19364738   1.17139959   2.10439920

