%chk=mol_6957.chk
# wB97XD/Def2SVP opt pop=full gfinput

C 5 H 6 N 2

1 2
C    5.103149  -2.063430   0.721044
C    4.149291   0.245305   0.304643
C    5.591284   2.504926   0.187461
C    4.681853   4.901780  -0.234931
N    6.776652   6.418550  -0.175839
C    8.822772   4.906409   0.270609
N    8.162218   2.524107   0.499228
H    3.891211  -3.712518   0.787052
H    7.118202  -2.339349   1.003180
H    2.120141   0.413415   0.034771
H    2.807283   5.640832  -0.560020
H    6.817168   8.311677  -0.416722
H   10.725121   5.641059   0.407727

