%chk=mol_4239.chk
# wB97XD/Def2SVP opt freq pop=full gfinput

C 5 H 9 N 1 O 1

1 2
C    1.31182945  -0.48347983  -0.38836986
C    2.16936898   0.66349977  -0.89974970
C    2.49298906   1.63074946   0.19486994
C    3.81956863   1.62202942   0.86846972
N    3.46956873   2.65094900  -0.07128998
C    3.25035882   3.95172858   0.36435989
O    2.72569895   4.29862881   1.41434956
H    1.08884966  -1.18387961  -1.19867957
H    0.36351988  -0.11269996   0.01277000
H    1.82219934  -1.02999961   0.41026986
H    1.62649941   1.18880951  -1.69492936
H    3.08420897   0.25691992  -1.34810948
H    1.62117946   1.96793926   0.74503970
H    4.60419798   0.97049963   0.51355982
H    3.88569856   1.93753922   1.90237927
H    3.61803865   4.67485809  -0.38156983

