%chk=mol_2187.chk
# wB97XD/Def2SVP opt freq pop=full gfinput

C 7 H 8

1 2
C    1.19398952  -0.54226977  -0.52808982
C    2.44723892  -0.27270991  -0.14566994
C    3.03411889   1.04128957  -0.25007990
C    4.28900814   1.31004953   0.14295995
C    4.92652798   2.66519904   0.04874998
C    6.12512779   2.59296894  -0.79705971
C    7.10679722   2.53615904  -1.48789942
H    0.79432970  -1.54712939  -0.43374982
H    0.53843975   0.21758991  -0.94116962
H    3.06012893  -1.07476950   0.26068991
H    2.41801906   1.83282936  -0.67205977
H    4.90653801   0.52128983   0.56844980
H    5.19904804   2.99963880   1.05592966
H    4.22827816   3.40547872  -0.35823986
H    7.97556686   2.48096919  -2.10221910

