%chk=mol_0630.chk
# wB97XD/Def2SVP opt pop=full gfinput

C 5 H 10 O 1

1 2
C    1.691513   0.064364   0.095374
C    4.548741  -0.043029   0.011943
C    5.986312   1.809640   1.717345
O    7.603011  -0.210799   2.634052
C    5.836306  -2.078113   1.653851
C    7.205148  -4.180074   0.278281
H    0.876020  -1.542470  -0.921374
H    1.002821   1.797224  -0.799845
H    0.976610   0.020749   2.036841
H    5.244084  -0.002476  -1.940560
H    4.913930   2.658599   3.270681
H    7.061018   3.268433   0.726656
H    4.658591  -2.809305   3.199457
H    8.474023  -3.439396  -1.177734
H    5.851593  -5.449327  -0.634287
H    8.334750  -5.301230   1.600258

