%chk=mol_6363.chk
# wB97XD/Def2SVP opt freq pop=full gfinput

C 5 H 7 N 1 O 1

1 2
O    0.91866970   1.32022941   0.79207969
N    2.23703933   1.73670936   0.56845981
C    2.96111894   0.70464975   0.26944989
C    4.42435837   0.77166969  -0.03152999
C    5.03377819  -0.39893985  -0.27620989
C    5.11433840   2.04591918   0.03961999
C    6.17400742   2.40660906  -0.69700974
H    0.46785983   2.16052914   0.99787962
H    2.50648928  -0.30231988   0.22577991
H    4.49596834  -1.34165943  -0.29339987
H    6.10239792  -0.45530984  -0.45911983
H    4.69727802   2.76766896   0.74107969
H    6.62164783   1.75035942  -1.43561935
H    6.61004734   3.39388871  -0.58061981

