%chk=mol_0934.chk
# wB97XD/Def2SVP opt freq pop=full gfinput

C 4 H 7 N 1 O 1

1 2
C    0.67010975   1.24023962  -0.19451994
N   -0.78009969   1.36952949   0.03493999
C   -1.39588952   0.05481998  -0.21814992
C   -0.32457989  -0.91144967   0.15686995
O    0.68515974  -1.16623950  -0.82814968
C    0.95761967  -0.17584994   0.17190993
H    0.91801965   1.43187952  -1.24425960
H    1.21698952   1.94525933   0.43762985
H   -1.17303956   2.06674933  -0.59343982
H   -2.29102898  -0.06835998   0.39740986
H   -1.66782939  -0.05248998  -1.27380943
H   -0.55657983  -1.64076936   0.91442961
H    1.69112945  -0.35057989   0.94016963

