%chk=mol_2941.chk
# wB97XD/Def2SVP opt freq pop=full gfinput

C 6 H 8 O 1

1 2
C    0.99999964   0.00000000   0.00000000
C    2.44399905   0.00000000   0.00000000
C    3.63415861   0.00000000   0.00000000
C    5.07815790   0.00000000   0.00000000
O    5.56299782   1.26250958   0.46086982
C    6.91866732   1.42938948   0.51837981
C    7.89204741   0.56662977   0.20026992
H    0.60596979   1.02083957   0.01371999
H    0.60592973  -0.52226979   0.87721968
H    0.60591978  -0.49852979  -0.89091969
H    5.44365788  -0.18436994  -1.01736963
H    5.44429779  -0.79639971   0.65897971
H    7.13725758   2.42769909   0.88284969
H    7.70605707  -0.43435985  -0.16523993
H    8.93118668   0.86383969   0.30600989

