%chk=mol_6337.chk
# wB97XD/Def2SVP opt freq pop=full gfinput

C 4 H 4 N 2 O 1

1 2
O    2.87213898  -1.03551960   0.06530997
N    2.15916920  -0.02512999   0.04867999
C    2.86689901   1.18041956   0.03044999
C    2.30083919   2.43447924   0.01014000
C    3.36560869   3.37419868  -0.00354000
C    4.54608822   2.66123891   0.00890000
N    4.22873831   1.32600951   0.02957999
H    1.24140954   2.65504885   0.00557000
H    3.27845883   4.45339870  -0.02060999
H    5.57848787   2.98573899   0.00487000
H    4.88190794   0.55446982   0.04238999

