%chk=mol_5322.chk
# wB97XD/Def2SVP opt freq pop=full gfinput

C 5 H 11 N 1 O 1

1 2
C    1.23891950  -0.13201995   0.67040974
O    2.50692892  -0.20283993   0.02552999
C    3.16400862   0.99816960   0.04471998
C    4.50235844   1.10461962   0.02935999
C    5.41275787  -0.09388996  -0.00201000
C    5.17448807   2.45018911   0.00051000
N    5.98590755   2.66093898   1.19066954
H    0.79208970  -1.13025963   0.65156978
H    0.56857979   0.55350983   0.14058994
H    1.35151958   0.17556994   1.71582937
H    2.50884891   1.86122930   0.04261998
H    4.86390829  -1.03973961  -0.04928998
H    6.04044771  -0.12617995   0.89421964
H    6.06423807  -0.05016998  -0.88114965
H    4.43848801   3.25925875  -0.07479998
H    5.81086779   2.51881909  -0.88895971
H    5.38132811   2.62906885   2.00994921
H    6.38035727   3.59885883   1.16298962

