%chk=mol_1114.chk
# wB97XD/Def2SVP opt freq pop=full gfinput

C 4 H 5 N 1 O 1

1 2
O    1.16686964  -0.07741997  -0.44821984
C    2.33269906  -0.02612999  -0.11232996
N    3.16484880  -1.08061957   0.16218995
C    4.47976828  -0.66751975   0.52975982
C    4.34442806   0.81161970   0.44343984
C    3.11767888   1.20007956   0.07587997
H    2.83712888  -2.03442931   0.09769996
H    5.20317793  -1.06592965  -0.18539993
H    4.70282841  -1.01086962   1.54259944
H    5.15695810   1.49064946   0.65705973
H    2.72660899   2.19045925  -0.06889997

