%chk=mol_2979.chk
# wB97XD/Def2SVP opt pop=full gfinput

C 5 H 8 O 2

1 2
C    1.778232   0.369366   0.089611
C    4.482827  -0.471676   0.238257
C    5.128490  -2.896799   0.609928
C    6.415545   1.586897  -0.047054
O    5.736226   3.807174  -0.268530
C    9.226134   0.929859  -0.049019
O   10.752164   3.108127  -0.445824
H    1.365289   1.757370   1.567396
H    0.463399  -1.210237   0.333801
H    1.388420   1.226961  -1.753004
H    3.684361  -4.344537   0.814094
H    7.066461  -3.552666   0.733724
H    9.627342  -0.404931  -1.573216
H    9.745053   0.118883   1.778516
H    9.601755   4.557263  -0.373977

