%chk=mol_2569.chk
# wB97XD/Def2SVP opt pop=full gfinput

C 5 H 10 O 2

1 2
C    1.845979   0.014078  -0.050645
C    4.712486   0.063344   0.020730
O    5.607327   0.353095  -2.516567
C    5.799362   2.156555   1.642134
C    8.441123   1.190357   2.201191
O    8.379896  -1.517941   2.010782
C    5.879826  -2.271470   1.237563
H    1.031734  -0.190258   1.839270
H    1.171611  -1.553506  -1.224410
H    1.104602   1.751889  -0.896977
H    7.377472  -0.158435  -2.545215
H    4.746047   2.336457   3.417834
H    5.849988   4.005010   0.717283
H    9.807281   1.885323   0.811297
H    9.093608   1.736961   4.084719
H    6.053265  -3.866247  -0.065725
H    4.856256  -2.872327   2.933346

