%chk=mol_3654.chk
# wB97XD/Def2SVP opt freq pop=full gfinput

C 7 H 12

1 2
C    2.82270885  -0.90169966  -1.04040956
C    2.46899915   0.00206000   0.13544996
C    3.02738905   1.43281937   0.00000000
C    2.47569895   2.30585909   1.14626956
C    2.91182876   3.76599860   1.07153964
C    4.47138834   1.43281937   0.00000000
C    5.66154814   1.43281937   0.00000000
H    2.33397913  -1.87422931  -0.92462969
H    3.90115857  -1.07859957  -1.10104966
H    2.48892903  -0.46454984  -1.98580933
H    2.83147907  -0.46318984   1.06161952
H    1.37520957   0.04700999   0.21046992
H    2.66715908   1.85285926  -0.94824964
H    2.78069901   1.89615929   2.11921930
H    1.37891948   2.27693915   1.12236953
H    3.98746848   3.87081861   1.24246955
H    2.39861917   4.34955883   1.84142923
H    2.67135882   4.19954824   0.09755997
H    6.72718716   1.43278956   0.00018000

