%chk=mol_4286.chk
# wB97XD/Def2SVP opt pop=full gfinput

C 4 H 6 N 2 O 1

1 2
C    1.838174  -0.123116   0.001172
C    4.699522   0.132999   0.031426
C    5.524633   2.809891   0.012926
N    5.992019   4.109474   2.136505
O    6.691936   6.491946   1.234539
C    6.566572   6.356661  -1.323753
N    5.861269   4.145076  -2.184278
H    1.295313  -2.119007   0.002249
H    1.026424   0.764186  -1.683708
H    0.989687   0.775959   1.661428
H    5.488899  -0.835448  -1.621102
H    5.457756  -0.828909   1.702549
H    7.049397   8.044828  -2.360910

