%chk=mol_3389.chk
# wB97XD/Def2SVP opt pop=full gfinput

C 6 H 14 O 1

1 2
C    2.840712  -0.787978   1.362341
O    5.357052   0.115330   1.608138
C    5.738701   2.592780   0.586514
C    4.438305   4.592469   2.219465
C    8.615904   3.081312   0.361939
C    9.998598   2.930757   2.901485
C    9.825480   1.210974  -1.492562
H    2.814917  -2.777519   1.918941
H    2.190854  -0.647363  -0.595434
H    1.566432   0.244455   2.618764
H    4.931221   2.666593  -1.323224
H    4.859544   4.322011   4.226051
H    2.382170   4.464119   2.028394
H    4.996568   6.502604   1.657573
H    8.893126   4.988159  -0.405724
H    9.778255   1.073043   3.782967
H    9.299323   4.360033   4.223047
H   12.024138   3.273592   2.647752
H    9.688815  -0.737163  -0.811826
H   11.831179   1.647879  -1.764229
H    8.905826   1.313662  -3.342396

