%chk=mol_1512.chk
# wB97XD/Def2SVP opt freq pop=full gfinput

C 6 H 9 N 1

1 2
C    0.99239963  -0.03917998  -0.01502999
C    2.51999903   0.00000000   0.00000000
N    3.05250883  -0.70824975  -1.16115963
C    3.00201893   1.36116946   0.00000000
C    3.39929867   2.48306894   0.00000000
C    3.86862850   3.80841851   0.00000000
C    3.03094888   4.85040855   0.00609000
H    0.58237982   0.47467983   0.86116970
H    0.62591976  -1.07087958   0.00248000
H    0.58273983   0.45125982  -0.90533966
H    2.87207890  -0.51351976   0.90165967
H    2.75178909  -0.22754993  -2.00788927
H    2.64670897  -1.64030945  -1.20432949
H    4.94211817   3.97243834  -0.00636000
H    1.95341933   4.71750784   0.01149000
H    3.41249871   5.86602783   0.00510000

