%chk=mol_5148.chk
# wB97XD/Def2SVP opt freq pop=full gfinput

C 6 H 9 N 1

1 2
C    0.97876960   0.05167998  -0.57411981
C    2.16285920  -0.08694997   0.33472988
C    2.60205913  -1.45626950   0.99446958
C    3.93078876  -0.60380977   1.03629959
N    3.51110888  -0.22308992  -0.39177987
C    3.63310862   0.62665975   1.80892932
C    2.43277907   0.98147964   1.33477950
H    0.04275998   0.00932000  -0.00639000
H    0.94587964  -0.75462967  -1.31549954
H    0.99546963   1.00241959  -1.11904955
H    2.60692906  -2.34007931   0.34475985
H    2.14802909  -1.71415937   1.95616925
H    4.89666843  -1.09085953   1.16046953
H    3.89871860   0.66355973  -0.71020973
H    4.23565817   1.10271955   2.56411910
H    1.81301928   1.81903934   1.60859942

