%chk=mol_2756.chk
# wB97XD/Def2SVP opt pop=full gfinput

C 6 H 10 O 1

1 2
C    1.584951  -0.227051   0.219359
C    4.396127   0.025719   0.006368
C    5.738985   2.181935  -0.184135
C    4.652581   4.807463  -0.133547
C    8.582267   2.125110  -0.445730
C    9.950466  -0.373070  -0.541614
O    9.771264   4.121776  -0.588499
H    0.927667  -1.685031  -1.094662
H    0.559208   1.502635  -0.236688
H    1.074555  -0.815492   2.134370
H    5.350986  -1.793256  -0.002721
H    2.631425   4.849491   0.283723
H    4.935190   5.734676  -1.961838
H    5.576053   5.944644   1.329611
H    9.303707  -1.482169  -2.159333
H    9.675719  -1.407430   1.225053
H   11.977103  -0.029536  -0.774221

