%chk=mol_7015.chk
# wB97XD/Def2SVP opt freq pop=full gfinput

C 6 H 11 N 1

1 2
C    0.89681971   0.31035990   0.45387980
C    2.36058927   0.08130997   0.22523992
C    2.89156890  -1.15411949   0.22282992
C    3.26995873   1.23651958  -0.00474000
C    2.68439889   2.65487885  -0.19524993
C    3.84326863   3.09237885   0.71843970
N    3.83420849   1.72299933   1.28050947
H    0.73847973   0.92744964   1.34378946
H    0.35488984  -0.62914979   0.60628974
H    0.44747984   0.81116968  -0.40930986
H    2.27772927  -2.03386927   0.39048985
H    3.95299864  -1.32039952   0.06545997
H    4.04273844   1.01463962  -0.75646967
H    1.69827938   2.85132885   0.23979990
H    2.70818901   3.05084896  -1.21404958
H    4.76734781   3.34625864   0.18587993
H    3.61106849   3.88517857   1.43399942
H    4.74827814   1.33924961   1.50764942

