%chk=mol_0028.chk
# wB97XD/Def2SVP opt pop=full gfinput

C 3 H 7 N 1

1 2
C    2.162130  -0.012661  -0.176274
N    4.908772  -0.146964   0.048868
C    6.112584  -1.410775  -2.084595
C    6.243863   1.420110  -1.783259
H    1.435096   1.419298   1.128715
H    1.327608  -1.828688   0.359350
H    1.482641   0.461679  -2.076337
H    4.926856  -2.190306  -3.558600
H    7.785161  -2.503131  -1.639262
H    8.007733   2.236113  -1.138862
H    5.158763   2.594934  -3.060581

