%chk=mol_0212.chk
# wB97XD/Def2SVP opt freq pop=full gfinput

C 4 H 10 O 1

1 2
C    0.98594964  -0.00197000  -0.00604000
C    2.51358914  -0.03476999   0.00605000
C    3.02645898  -0.71466976   1.27380943
C    3.05365896  -0.73920971  -1.23784947
O    2.99711871   1.30923951   0.01317000
H    0.61306977   0.52114981  -0.89391965
H    0.60133976   0.54732978   0.86075968
H    0.56088984  -1.01075959   0.00489000
H    2.68143892  -0.18337993   2.16820908
H    4.12177849  -0.69921976   1.30891943
H    2.69208884  -1.75513935   1.33783948
H    2.71986914  -0.23218991  -2.15025926
H    2.72764897  -1.78325939  -1.28347957
H    4.14915848  -0.71546972  -1.25407958
H    2.67434907   1.74850929  -0.79220968

