%chk=mol_3731.chk
# wB97XD/Def2SVP opt freq pop=full gfinput

C 6 H 10 O 1

1 2
O    1.12411964   1.75936937  -0.23408993
C    1.91084921   2.05141926   0.91647965
C    3.18337893   2.79554892   0.51362979
C    4.12197828   1.91569936  -0.26876989
C    5.35134792   1.57183945   0.14187996
C    6.22038746   0.72296977  -0.63668972
C    7.44055700   0.35653988  -0.22845992
H    0.37645987   1.21448958   0.06514998
H    2.14531922   1.11443961   1.43280947
H    1.30958951   2.67788887   1.58281934
H    3.67703843   3.17600870   1.41544938
H    2.92653894   3.65819860  -0.11247995
H    3.73996878   1.55803943  -1.22373950
H    5.72589779   1.93373919   1.09719956
H    5.85596752   0.36926988  -1.59919941
H    7.85375690   0.67816973   0.72193974
H    8.05794716  -0.28442988  -0.84991968

