%chk=mol_0405.chk
# wB97XD/Def2SVP opt freq pop=full gfinput

C 4 H 8 N 2

1 2
C    0.98516965  -0.29961988   0.15469994
C    2.48860908  -0.31522986   0.02299999
C    3.13955879  -1.49056947   0.02804999
N    3.16046882   0.88918972  -0.10047997
C    2.68253899   2.16238904  -0.12690996
N    3.38596892   3.23317885  -0.24708989
H    0.68531972   0.25350991   1.05096960
H    0.56631976  -1.30847955   0.23769991
H    0.52856982   0.17185993  -0.72188973
H    2.60884905  -2.43311906   0.12515996
H    4.21896839  -1.55121946  -0.06392998
H    4.16515827   0.79362971  -0.18408993
H    1.58782947   2.24873900  -0.03462999
H    4.37749815   2.99933887  -0.32232988

