%chk=mol_2733.chk
# wB97XD/Def2SVP opt pop=full gfinput

C 6 H 12 O 1

1 2
C    2.188813   0.401472   0.122227
C    5.038860  -0.164803  -0.006746
C    5.766329  -1.816216   2.274002
C    5.592720  -1.666455  -2.438673
C    6.457308   2.325913  -0.128029
C    7.237670   3.823521   2.170710
O    9.000256   2.278197   0.802302
H    1.573480   1.525651  -1.504128
H    1.722372   1.480090   1.827686
H    1.073232  -1.343085   0.146737
H    5.318124  -0.886584   4.066842
H    7.789583  -2.254595   2.280616
H    4.741569  -3.615840   2.245184
H    5.043433  -0.595736  -4.124384
H    4.564445  -3.463112  -2.468285
H    7.614274  -2.084462  -2.607198
H    6.099318   3.372292  -1.853425
H    6.673360   3.203691   4.034225
H    7.428400   5.852803   1.982625

