%chk=mol_5974.chk
# wB97XD/Def2SVP opt freq pop=full gfinput

C 5 H 5 N 1 O 1

1 2
O    1.04842961  -0.08314997   0.17241994
C    2.40145898   0.01671999   0.03734999
C    3.02214885   1.25206947  -0.05038998
C    4.40729856   1.27841961  -0.18786994
C    5.11040783   0.07875997  -0.23164991
C    4.39326859  -1.10283959  -0.13519993
N    3.05147886  -1.15794957  -0.00139000
H    0.68269974   0.81199968   0.18414994
H    2.46106911   2.17704916  -0.01458999
H    4.93510771   2.22554922  -0.26033992
H    6.18939781   0.06370997  -0.33812988
H    4.89348841  -2.06617928  -0.16385993

