%chk=mol_6143.chk
# wB97XD/Def2SVP opt freq pop=full gfinput

C 4 H 5 N 1 O 2

1 2
O    2.27862930  -0.54404980  -1.31558943
C    2.37002921  -0.03495999   0.00686000
C    2.87177873   1.35246944   0.00339000
C    2.15315938   2.52451897  -0.00719000
O    2.99710894   3.58563852   0.00684000
N    4.30521822   3.12952900   0.01927999
C    4.21150827   1.79774928   0.00221000
H    1.92878926  -1.44803941  -1.24761951
H    3.04080892  -0.68374974   0.58034980
H    1.37654960  -0.08525997   0.46537980
H    1.10102952   2.76688910  -0.02361999
H    5.12006807   1.21207952  -0.00631000

