%chk=mol_4720.chk
# wB97XD/Def2SVP opt freq pop=full gfinput

C 4 H 12 N 2 O 1

1 2
C    3.06616879  -1.00056970  -1.17498958
C    2.64962888  -0.09357996  -0.01997999
N    3.04190898  -0.68649977   1.27203953
C    3.17560887   1.36386955  -0.16496994
N    2.83546877   2.15676928   1.04980958
C    4.69796801   1.47202945  -0.37867987
O    5.07600832   2.84979892  -0.37028986
H    2.78293896  -0.55639976  -2.13519907
H    2.56934905  -1.97449934  -1.10111964
H    4.14600849  -1.18151951  -1.18768954
H    1.55297947  -0.04219998  -0.01677999
H    4.04792833  -0.85894966   1.28236949
H    2.61075902  -1.60781932   1.36141956
H    2.67524910   1.84943926  -1.01189959
H    3.08119893   1.55166948   1.84522927
H    1.81680930   2.20561934   1.11376965
H    4.99921846   1.04995954  -1.34133947
H    5.25901794   0.96864963   0.41547987
H    4.48604822   3.24663877   0.30979991

