%chk=mol_3513.chk
# wB97XD/Def2SVP opt pop=full gfinput

C 5 H 6 O 2

1 2
O    2.369830   0.007634   1.906337
C    4.768497  -0.012472   0.621758
C    4.847601   1.309429  -1.893411
O    7.310935   2.131158  -2.894059
C    8.500442  -0.117258  -3.575362
C    7.226993  -2.202873  -2.970819
C    4.827608  -1.571024  -1.760733
H    1.802364   1.729666   2.217953
H    6.456079   0.050512   1.786301
H    3.167918   2.268805  -2.567552
H   10.310403   0.095734  -4.479483
H    7.846880  -4.114841  -3.331511
H    3.148151  -2.554872  -2.373345

