%chk=mol_4263.chk
# wB97XD/Def2SVP opt freq pop=full gfinput

C 5 H 5 N 1 O 1

1 2
C    0.99999964   0.00000000   0.00000000
C    2.19015908   0.00000000   0.00000000
C    3.63415861   0.00000000   0.00000000
C    4.24712849  -1.22204947   0.64711976
O    4.54204845  -0.84387970   2.00044942
N    4.68888807   0.56405979   2.03319931
C    4.18107843   1.01248956   0.93535960
H   -0.06631997  -0.00095000   0.00809000
H    4.02538824   0.15840994  -1.00878966
H    5.19495821  -1.49256945   0.16798992
H    3.59492874  -2.10058928   0.65021974
H    4.13318825   2.08370924   0.69283974

