%chk=mol_0103.chk
# wB97XD/Def2SVP opt pop=full gfinput

C 3 H 7 N 1 O 1

1 2
C    3.047051  -0.849904  -0.917632
O    5.680876  -0.425491  -0.582735
N    6.091456   2.188000  -0.418499
C    8.481356   2.583634  -0.115406
C    9.497612   5.209729   0.121717
H    2.724437  -2.886387  -1.045529
H    2.394963   0.039722  -2.667065
H    1.990751  -0.107544   0.698008
H    9.860591   1.020754  -0.019540
H    7.980616   6.605368   0.002816
H   10.863468   5.536727  -1.392671
H   10.467117   5.389518   1.936554

