%chk=mol_2461.chk
# wB97XD/Def2SVP opt freq pop=full gfinput

C 5 H 6 O 2

1 2
C    1.03074956  -0.02788999   0.14216995
C    2.35865927   0.01894999   0.00594000
C    3.28613877   1.17618954  -0.00845000
O    4.44687843   0.74645972  -0.74264967
C    4.60821819  -0.67486972  -0.55771977
C    3.21984887  -1.15272951  -0.25023991
O    2.85213876  -2.31474924  -0.18404993
H    0.49950981  -0.97531962   0.09854996
H    0.44532982   0.87168968   0.29719990
H    3.60012865   1.44652951   1.00521958
H    2.86421895   2.05366921  -0.50587982
H    4.98527813  -1.11096966  -1.48454952
H    5.27908802  -0.85973966   0.28447992

