%chk=mol_3694.chk
# wB97XD/Def2SVP opt freq pop=full gfinput

C 6 H 10 O 1

1 2
O    1.80281925  -0.45667985   1.04176962
C    2.71548891  -0.21583992  -0.01602999
C    3.05700898   1.23393953   0.00034000
C    4.30649805   1.72422934   0.05905998
C    4.66068792   3.14554882   0.08551997
C    5.75373745   3.63195848  -0.83013970
C    4.32714844   4.01037836  -1.10155952
H    1.60403943  -1.40724945   1.02779961
H    2.23337913  -0.47691983  -0.96273965
H    3.59531879  -0.85110968   0.12465996
H    2.21747899   1.92323923  -0.03837999
H    5.13930798   1.02493966   0.11317995
H    4.59920788   3.60429883   1.06797957
H    6.22588778   2.93034887  -1.50823951
H    6.42037773   4.40095854  -0.45671985
H    4.02571821   5.03387785  -0.90917969
H    3.83787847   3.56166863  -1.95847929

