%chk=mol_5538.chk
# wB97XD/Def2SVP opt pop=full gfinput

C 5 H 11 N 1 O 1

1 2
N    1.507718   1.206515  -1.462289
C    3.861107   0.369290  -0.238011
C    3.979423   0.655603   2.624641
C    1.625353  -0.309499   3.987058
O    1.232555  -2.924861   3.505914
C    5.250075  -1.829803  -1.418239
C    6.290917   0.794138  -1.677869
H    1.534023   0.835920  -3.354377
H    1.323186   3.120920  -1.319577
H    4.251676   2.658429   3.081350
H    5.631932  -0.364226   3.354132
H   -0.074077   0.729208   3.429192
H    1.858886  -0.074531   6.028605
H    0.837961  -3.035184   1.707575
H    4.463628  -2.723247  -3.085110
H    6.242030  -3.138476  -0.190144
H    7.986512   1.258161  -0.623496
H    6.212305   1.677812  -3.523735

