%chk=mol_6066.chk
# wB97XD/Def2SVP opt freq pop=full gfinput

C 4 H 5 N 1 O 2

1 2
O    0.84495968   0.03579999   0.03413999
C    2.07568908   0.00436000   0.05224998
C    2.91960907   1.24669945  -0.05446998
O    4.11784840   0.99777961   0.67645973
N    4.92159796   0.00720000   0.06401998
C    4.28098869  -1.09956956  -0.15220994
C    2.82612896  -1.29238951   0.12831995
H    2.40049911   2.08604908   0.41407984
H    3.14128876   1.47574937  -1.10085964
H    4.84074831  -1.96581924  -0.54182976
H    2.42505908  -1.97711933  -0.62504977
H    2.71299887  -1.73406935   1.12177968

