%chk=mol_0754.chk
# wB97XD/Def2SVP opt pop=full gfinput

C 4 H 6 O 2

1 2
C    1.862949  -0.565387   1.702530
C    3.536811  -0.452022  -0.191562
C    5.818769   1.220631  -0.250389
O    7.966670  -0.382688  -0.598533
C   10.012317   0.781610  -1.603981
O   10.179841   2.997956  -2.217726
H    0.250219  -1.830181   1.596346
H    2.056362   0.583774   3.390112
H    3.251123  -1.643873  -1.842407
H    6.048144   2.260339   1.525500
H    5.612317   2.565681  -1.812002
H   11.551820  -0.605506  -1.793067

