%chk=mol_5838.chk
# wB97XD/Def2SVP opt pop=full gfinput

C 6 H 11 N 1

1 2
C    1.883528   0.034676   0.031407
C    4.694685   0.008882  -0.076893
C    6.175266  -2.041849  -0.217092
C    8.911551  -1.363929  -0.127311
C    8.873871   1.475706  -0.649782
C    6.231485   2.379694   0.140426
N    5.330464   4.421373  -1.459492
H    1.108740  -1.883471   0.016686
H    1.095550   1.042486  -1.593115
H    1.237185   0.964006   1.762434
H    5.498952  -3.967726  -0.296857
H    9.698660  -1.789571   1.739134
H   10.004513  -2.371550  -1.564542
H    9.205952   1.792934  -2.674964
H   10.373538   2.475447   0.367797
H    6.241028   3.007745   2.115360
H    5.301097   3.813977  -3.287179
H    6.597884   5.868318  -1.408791

