%chk=mol_5176.chk
# wB97XD/Def2SVP opt pop=full gfinput

C 4 H 8 N 2 O 1

1 2
C    1.510061   0.381819   0.245645
N    4.232590   0.335181  -0.214238
C    5.314099   2.468020   0.128804
N    7.848694   2.597372  -0.266055
C    9.252364   4.762450   0.036585
C   12.024516   4.430765  -0.510642
O    8.376457   6.805074   0.701485
H    0.571699  -0.846956  -1.127108
H    0.676125   2.268484   0.058449
H    1.102731  -0.343363   2.139057
H    4.388247   4.239128   0.726411
H    8.661711   0.959206  -0.809143
H   12.458000   2.521518  -1.170837
H   13.099524   4.791722   1.216322
H   12.586616   5.772943  -1.977466

