%chk=mol_6183.chk
# wB97XD/Def2SVP opt freq pop=full gfinput

C 5 H 11 N 1 O 1

1 2
O    2.65398884   3.52957869  -0.40296984
C    2.31746912   2.16629910  -0.61535972
C    3.04401898   1.29364955   0.39934987
C    4.54015875   1.26816952   0.11520996
C    5.38317823   2.48552895   0.56044984
N    6.45083761   1.53945935   0.97275966
C    5.41157818   0.49352983   1.12691963
H    2.14822936   4.05298853  -1.04833961
H    2.58318901   1.89331925  -1.64147937
H    1.23527944   2.06071925  -0.48965982
H    2.64901900   0.27318990   0.33625990
H    2.85521889   1.66231942   1.41467941
H    4.75391865   0.96171969  -0.91968966
H    4.97100830   3.05990887   1.39867949
H    5.67024803   3.17994881  -0.23429991
H    7.11068726   1.33928955   0.22074993
H    5.72069788  -0.50825983   0.81459969
H    5.00685835   0.43395984   2.14427924

