%chk=mol_5255.chk
# wB97XD/Def2SVP opt freq pop=full gfinput

C 5 H 9 N 1 O 1

1 2
C    1.12596953   1.54317939   0.25679991
N    2.27963901   1.09029949  -0.09871996
O    3.22594881   2.11798906   0.04637998
C    4.49637842   1.63516939  -0.39602986
C    5.48298788   2.75898910  -0.33093986
C    6.32770729   2.97763872   0.89866966
C    6.96302700   2.47515893  -0.36900988
H    0.24249992   0.88781965   0.21601993
H    0.96780962   2.57739902   0.60683978
H    4.41063833   1.28772962  -1.43203950
H    4.80295801   0.79391968   0.23683991
H    5.12942839   3.63243866  -0.86756968
H    6.22842789   2.28526902   1.72727942
H    6.52906752   3.99985862   1.19877946
H    7.59453726   3.15806890  -0.92639965
H    7.29526711   1.44339943  -0.39552987

