%chk=mol_0638.chk
# wB97XD/Def2SVP opt pop=full gfinput

C 4 H 8 O 2

1 2
C    1.939861  -0.021902  -0.003118
C    4.796578  -0.021259   0.158983
C    5.865710   2.109766   1.722259
O    8.327041   1.212392   2.367619
C    8.029862  -1.469772   2.544478
O    5.673657  -2.225663   1.451196
H    1.282387  -1.656005  -1.091052
H    1.239056   1.700678  -0.905840
H    1.086970  -0.184796   1.876498
H    5.631384  -0.032692  -1.737187
H    4.813151   2.407776   3.482009
H    5.993115   3.896842   0.693832
H    9.586222  -2.393678   1.546949
H    8.062479  -2.036973   4.532130

