%chk=mol_5230.chk
# wB97XD/Def2SVP opt freq pop=full gfinput

C 4 H 6 N 2 O 1

1 2
C    5.52335787  -0.87835968  -0.25400990
N    5.33059788   0.25566989  -0.83906972
N    4.67388821   1.14080954   0.00631000
C    4.50037861   2.28077912  -0.57917976
C    3.84888840   3.41260862   0.14540994
C    4.87420845   4.36092806   0.68555975
O    4.89792776   5.55630827   0.40752983
H    6.03266764  -1.69249928  -0.79173970
H    5.20100784  -1.08524966   0.78053969
H    4.86382818   2.47809911  -1.60399938
H    3.25647879   3.03525901   0.98399961
H    3.18998861   3.94133854  -0.54921979
H    5.60406780   3.92933846   1.39270949

