%chk=mol_0713.chk
# wB97XD/Def2SVP opt freq pop=full gfinput

C 5 H 10 O 1

1 2
C    2.99924898  -1.02744961  -0.68438977
C    2.66871905  -0.04209999   0.42936984
C    3.13107872   1.38335943   0.10939996
C    2.61281896   2.37020922   1.15101957
C    4.64219809   1.45676947   0.09859996
O    5.29145813   1.82279932  -0.87732971
H    2.61297894  -2.02105927  -0.43463984
H    4.07998848  -1.11622965  -0.83273971
H    2.54545903  -0.71621972  -1.63082945
H    3.12803888  -0.39403987   1.36132944
H    1.58295941  -0.04897998   0.58401978
H    2.76379895   1.68407941  -0.87888968
H    2.96171904   2.11065912   2.15714908
H    1.51796949   2.38625908   1.16307962
H    2.96376896   3.38538885   0.93391961
H    5.14876795   1.16455960   1.03475964

