%chk=mol_4129.chk
# wB97XD/Def2SVP opt freq pop=full gfinput

C 4 H 8 N 2 O 1

1 2
C    0.93153965   0.00998000   0.15252994
C    2.43776894  -0.09397997   0.05342998
N    3.10844898   0.90233970   0.91447967
C    4.03440857   0.00658000   1.36774945
O    5.13443804   0.20582992   1.82425928
C    3.13497877  -1.19193959   0.91751969
N    3.77073860  -2.18545914   0.03329999
H    0.45756981  -0.81177968  -0.39449987
H    0.57765979   0.94867963  -0.28714988
H    0.58360976  -0.03136999   1.19024956
H    2.79249883  -0.00386000  -0.98234963
H    3.45174861   1.81801939   0.65580976
H    2.54083896  -1.62178946   1.72996938
H    4.45883846  -1.79800940  -0.61137980
H    3.11937881  -2.74232912  -0.51520979

