%chk=mol_6253.chk
# wB97XD/Def2SVP opt freq pop=full gfinput

C 4 H 8 N 2 O 1

1 2
O    3.31508875  -0.49587983  -1.11318970
C    2.12232924  -0.31869987  -0.34878987
C    2.19632912   1.01653969   0.40045983
N    3.31710863   0.99452960   1.35015953
C    3.57690859   2.33181930   1.89844930
C    4.69587803   2.33597922   2.86594892
N    5.58068800   2.36091900   3.61737847
H    3.26564884  -1.38491952  -1.50582945
H    2.02079916  -1.15762961   0.34789985
H    1.26962948  -0.32090989  -1.03466964
H    1.25638950   1.19230950   0.93406963
H    2.34418917   1.81941926  -0.33173987
H    4.14435863   0.66891974   0.83950973
H    2.67741895   2.70156908   2.40435910
H    3.81241846   3.03063869   1.08694959

