%chk=mol_5148.chk
# wB97XD/Def2SVP opt pop=full gfinput

C 6 H 9 N 1

1 2
C    1.849607   0.097661  -1.084930
C    4.087213  -0.164312   0.632548
C    4.917181  -2.751951   1.879276
C    7.428117  -1.141036   1.958323
N    6.635036  -0.421579  -0.740357
C    6.865583   1.184216   3.418382
C    4.597288   1.854728   2.522369
H    0.080805   0.017612  -0.012075
H    1.787454  -1.426044  -2.485935
H    1.881166   1.894299  -2.114698
H    4.926384  -4.422111   0.651502
H    4.059188  -3.239293   3.696625
H    9.253366  -2.061427   2.192971
H    7.367513   1.253947  -1.342102
H    8.004237   2.083839   4.845485
H    3.426111   3.437487   3.039814

