%chk=mol_0067.chk
# wB97XD/Def2SVP opt freq pop=full gfinput

C 4 H 8 O 1

1 2
C    0.89067966  -0.12491995  -0.08277997
C    2.39217901   0.05922998   0.08705997
O    3.06882882  -0.71775973  -0.89358968
C    2.79833913   1.49378943  -0.08361997
C    3.44041872   2.21149898   0.84837967
H    0.32971987   0.44582981   0.66430974
H    0.62461978  -1.18323958   0.01562999
H    0.56086981   0.18748993  -1.08053958
H    2.69274902  -0.32157987   1.06912959
H    2.90027881  -0.31332988  -1.76024938
H    2.54927897   1.97395921  -1.02692962
H    3.71952868   1.78266943   1.80608928
H    3.71003866   3.24709892   0.66554976

