%chk=mol_7054.chk
# wB97XD/Def2SVP opt pop=full gfinput

C 6 H 11 N 1

1 2
C    3.250159  -0.200141   0.853306
C    4.939479   0.191732  -1.471341
C    3.999246  -1.094095  -3.855665
C    1.862287  -2.411952  -4.189050
C    5.353953   2.998126  -1.864007
C    7.622664   4.298825  -0.723047
N    7.464248   3.863337  -3.438924
H    4.082716   0.704150   2.519232
H    3.015719  -2.211036   1.283030
H    1.373888   0.632718   0.578086
H    6.765881  -0.694626  -1.031658
H    5.266346  -0.901532  -5.470417
H    0.496582  -2.707788  -2.691159
H    1.436967  -3.242279  -6.017644
H    3.605786   4.050269  -2.051128
H    9.018681   3.178614   0.269740
H    7.434750   6.234925  -0.090782
H    6.979779   5.477901  -4.380612

