%chk=mol_1741.chk
# wB97XD/Def2SVP opt pop=full gfinput

C 6 H 7 N 1

1 2
C    2.035915  -0.255491  -0.414738
N    4.704454  -0.000926   0.216676
C    5.594912   2.618556   0.000000
C    4.562555   4.185970   2.064866
C    3.721419   5.464464   3.742017
C    8.323677   2.618556   0.000000
C   10.572753   2.618556   0.000000
H    1.499025  -2.250135  -0.301260
H    1.643381   0.390739  -2.340842
H    0.824374   0.774618   0.907144
H    5.728894  -1.076974  -1.006279
H    4.962270   3.404417  -1.813268
H    2.983084   6.584656   5.243517
H   12.585992   2.616231   0.021127

