%chk=mol_4134.chk
# wB97XD/Def2SVP opt freq pop=full gfinput

C 5 H 5 N 1 O 1

1 2
C    1.06770957  -0.04754998  -0.15511996
C    2.37699914   0.01959999   0.06258998
N    3.19977903  -1.04707956   0.23217991
C    4.50133848  -0.64845973   0.43877983
O    5.48043823  -1.34320951   0.62358975
C    4.48181868   0.82915968   0.39177987
C    3.20784879   1.18328953   0.16753992
H    0.55054981  -0.99882966  -0.21370992
H    0.47171983   0.85001969  -0.28163987
H    2.92706895  -2.01751924   0.21514992
H    5.35218763   1.44488943   0.51959980
H    2.84962893   2.19732904   0.07744998

