%chk=mol_0768.chk
# wB97XD/Def2SVP opt freq pop=full gfinput

C 4 H 8 O 2

1 2
C    0.19122992  -0.31814989  -0.19730993
C    1.62199938  -0.82537973  -0.17551994
C    2.61740899   0.30148989   0.07916997
O    3.95267868  -0.22379991   0.13261995
C    4.58890867  -0.33002988  -1.06012952
O    4.14223862  -0.03654999  -2.15700912
H   -0.50163984  -1.14499950  -0.38176984
H    0.05132998   0.42518985  -0.98855966
H   -0.07620997   0.14255995   0.75889969
H    1.85088933  -1.32095945  -1.12627959
H    1.73328924  -1.59431934   0.59867978
H    2.41957903   0.76362973   1.05249965
H    2.53604913   1.09457958  -0.67340976
H    5.59814787  -0.73534977  -0.89023966

