%chk=mol_4990.chk
# wB97XD/Def2SVP opt pop=full gfinput

C 5 H 11 N 1 O 1

1 2
C    1.896321   0.068918   0.309726
N    4.639807   0.024585  -0.004819
C    5.525332  -2.403826  -1.065579
C    4.989595  -2.729237  -3.903362
O    6.002526  -0.671420  -5.345620
C    4.995208   1.689302  -4.478349
C    5.530680   2.099070  -1.651413
H    1.303552   1.853481   1.174937
H    1.299092  -1.435757   1.599389
H    0.860638  -0.158699  -1.465180
H    4.730873  -3.993180  -0.001984
H    7.577594  -2.484574  -0.778151
H    5.889482  -4.462720  -4.584381
H    2.960728  -2.893473  -4.287052
H    5.900198   3.188176  -5.579208
H    2.967569   1.755310  -4.892047
H    7.583206   2.246355  -1.392709
H    4.739868   3.909824  -1.029712

