%chk=mol_5502.chk
# wB97XD/Def2SVP opt pop=full gfinput

C 5 H 9 N 1 O 1

1 2
N    1.922192   0.073567   0.390833
C    4.626560  -0.117995  -0.082335
C    5.359792  -2.809626  -0.918218
C    5.038445  -2.824498  -3.802223
C    5.713511  -0.181281  -4.554675
O    3.725690   1.635728  -4.419370
C    5.403237   1.493337  -2.296811
H    1.439026   1.920737   0.629676
H    1.468790  -0.848676   2.014864
H    5.669141   0.421806   1.621139
H    4.270044  -4.302037   0.011754
H    7.359727  -3.127667  -0.463909
H    6.283604  -4.220552  -4.682061
H    3.084279  -3.259740  -4.329552
H    7.267376   0.065592  -5.845924
H    6.731620   2.990964  -1.928484

