%chk=mol_4251.chk
# wB97XD/Def2SVP opt freq pop=full gfinput

C 5 H 7 N 1 O 1

1 2
C    0.94084966  -0.13196996   0.00668000
C    2.45514917   0.01235000   0.00758000
C    2.88979888   1.43197942  -0.00029000
C    3.15452886   2.25166917   1.07197964
O    3.52547884   3.48001885   0.63466978
N    3.51377869   3.49573874  -0.74935967
C    3.13340878   2.26847935  -1.11172950
H    0.66062975  -1.18979955   0.01145000
H    0.49993983   0.33312988  -0.88118964
H    0.49804980   0.34171987   0.88893968
H    2.86746907  -0.50232983  -0.86906970
H    2.86580896  -0.49476981   0.88969964
H    3.12943888   2.12746930   2.14474916
H    3.05106878   2.03977919  -2.16483927

