%chk=mol_5706.chk
# wB97XD/Def2SVP opt freq pop=full gfinput

C 5 H 7 N 1 O 1

1 2
N    1.13777959  -0.07012997   0.20653991
C    2.51509905   0.01802999   0.08732996
C    3.22664881  -1.22852945  -0.17035994
C    2.79856896  -2.44581914   0.19109993
C    3.13226891   1.21081948   0.16439994
C    4.58859825   1.45123947   0.09422997
O    5.04213810   2.59018898   0.09661996
H    0.64809978   0.80888969   0.06003997
H    0.73939973  -0.82252967  -0.35089988
H    4.17596817  -1.17244947  -0.69891977
H    1.87593937  -2.59332895   0.74434972
H    3.38476872  -3.32892895  -0.03789999
H    2.56004906   2.11844921   0.33079988
H    5.24416780   0.56996977   0.04928998

