%chk=mol_6021.chk
# wB97XD/Def2SVP opt freq pop=full gfinput

C 5 H 9 N 1 O 1

1 2
O    1.00320959   0.07412998   0.03910999
C    2.42089915   0.00709000   0.00115000
C    3.00869870  -1.07370961   0.91334963
N    3.80928850  -0.25567991   1.87036932
C    4.46877861   0.78878975   0.96444964
C    3.00757885   1.21798944   0.69711971
C    2.85899901   0.89926970   2.20471907
H    0.66235971  -0.78202969  -0.27209991
H    2.75861907  -0.08107997  -1.03696966
H    3.66567850  -1.75450933   0.36193985
H    2.24494910  -1.66007948   1.43460941
H    5.03783798   0.38853988   0.11776996
H    5.10234785   1.51344943   1.49144948
H    2.80458903   2.22424912   0.33551985
H    3.27067876   1.64005935   2.90205884
H    1.86719930   0.60554981   2.56559896

