%chk=mol_7072.chk
# wB97XD/Def2SVP opt freq pop=full gfinput

C 6 H 7 N 1

1 2
C    1.57469940  -0.66603971   1.11282957
C    2.31995916  -0.32643989   0.05267998
C    3.01526880   0.99350959  -0.10348996
C    4.50361824   0.81625968  -0.16878994
C    5.25610828   1.17243958  -1.22148955
C    6.66696739   0.99571961  -1.24058950
N    7.81766701   0.85625970  -1.26169956
H    1.09190953  -1.63761938   1.16379964
H    1.42860949   0.00878000   1.95080936
H    2.42824912  -1.04051960  -0.76193970
H    2.78076887   1.66107941   0.73431975
H    2.63684916   1.48143947  -1.00980961
H    4.97485828   0.37913987   0.71152973
H    4.80811834   1.61385942  -2.10510921

