%chk=mol_0688.chk
# wB97XD/Def2SVP opt pop=full gfinput

C 5 H 8 O 1

1 2
C    1.495227   0.212613   0.087060
C    4.298484  -0.039080   0.334954
C    5.943756   1.788588  -0.285934
C    8.756103   1.534609  -0.057334
C    9.705709   3.451793   1.826364
O   11.036133   5.267007   1.252114
H    0.770536  -1.231516  -1.203321
H    0.937059   2.066963  -0.639219
H    0.599667  -0.054197   1.931621
H    4.980165  -1.841122   1.054977
H    5.248242   3.578839  -1.028219
H    9.645011   1.883925  -1.892447
H    9.331695  -0.343892   0.590483
H    9.140189   3.130577   3.807798

