%chk=mol_4798.chk
# wB97XD/Def2SVP opt pop=full gfinput

C 4 H 6 N 2 O 1

1 2
C   -1.035702   2.236056   0.740565
C    0.553047   0.170793  -0.353624
N    2.985541   0.206434  -0.127764
O    3.981899  -1.943451  -1.327344
C    6.679256  -1.889159  -1.110384
C    7.774976  -4.127332  -2.328993
N    8.675827  -5.886894  -3.284609
H   -2.388897   1.408866   2.063562
H   -2.080513   3.154614  -0.786013
H    0.131563   3.629313   1.720218
H   -0.445257  -1.361831  -1.358808
H    7.196134  -1.849437   0.894426
H    7.393554  -0.168847  -2.014845

