%chk=mol_1188.chk
# wB97XD/Def2SVP opt freq pop=full gfinput

C 7 H 10

1 2
C    1.02883959   0.03436999   0.11987995
C    2.54762912  -0.02175999  -0.04727998
C    2.97643900  -1.24880946  -0.87685966
C    3.43944860  -0.66544980  -2.17472911
C    3.49873877   0.66913974  -2.13105917
C    3.06984878   1.15506959  -0.84402972
C    3.14986873   2.42674899  -0.43761984
H    0.72751975   0.91804963   0.69375974
H    0.66818976  -0.85047966   0.65605974
H    0.51540983   0.07278997  -0.84822971
H    3.01845908  -0.06066998   0.94300961
H    2.15951896  -1.96061933  -1.03060961
H    3.80630851  -1.77549922  -0.39357987
H    3.72456861  -1.26302946  -3.02955866
H    3.83561873   1.30487955  -2.93766880
H    2.82032895   2.71754885   0.55453980
H    3.55134869   3.20441890  -1.07858956

