%chk=mol_2105.chk
# wB97XD/Def2SVP opt pop=full gfinput

C 4 H 5 N 3

1 2
N    3.518009  -1.553336   0.723274
C    4.526536   0.474548  -0.166957
N    5.704573   2.309415   1.235408
C    7.796481   3.683813   0.042783
C    5.296430   4.947927   0.447374
C    5.080056   6.845986   2.367279
N    4.925080   8.439290   3.867854
H    2.767088  -2.615003  -0.711803
H    4.481429   0.842289  -2.223622
H    8.317120   3.054175  -1.829671
H    9.335114   4.034717   1.343973
H    4.060870   5.176583  -1.169457

