%chk=mol_6319.chk
# wB97XD/Def2SVP opt freq pop=full gfinput

C 4 H 6 N 2 O 1

1 2
O    1.13920951   0.03941999  -0.20590992
N    2.51705909  -0.05321998  -0.32746986
C    3.21110892  -1.15793955   0.07793997
C    4.44426823  -0.81656969   0.48011979
C    4.63515806   0.68762976   0.40860987
C    3.22869897   1.09300959  -0.03773998
N    2.79324913   2.30965924  -0.09155997
H    0.99132961   0.99876964  -0.34694988
H    2.74109888  -2.13007927   0.05945998
H    5.18986797  -1.50345945   0.85214967
H    4.86539841   1.11813962   1.38562942
H    5.37630796   0.97518963  -0.34021989
H    3.53787851   2.95668888   0.19142993

