%chk=mol_5071.chk
# wB97XD/Def2SVP opt pop=full gfinput

C 5 H 8 N 2

1 2
C    2.752424   0.224783   0.991861
C    5.158536  -0.186913  -0.439569
C    6.505590   2.056702  -1.571799
C    7.639029   0.694531   0.650538
C    9.203514  -1.572139   0.328831
N    8.029881  -3.427453  -0.752300
N    5.628531  -2.732563  -1.498780
H    2.650209   2.128361   1.798906
H    2.588207  -1.131039   2.546538
H    1.124047  -0.022885  -0.259932
H    5.736075   3.928401  -1.258066
H    7.380174   1.823151  -3.410861
H    7.639123   1.596365   2.483327
H   11.158530  -1.653832   1.025611
H    4.343762  -4.067050  -0.953896

