%chk=mol_2774.chk
# wB97XD/Def2SVP opt freq pop=full gfinput

C 6 H 10 O 1

1 2
C    2.71440887  -1.11553955   1.11529958
C    2.41233921  -0.12879996   0.02194999
C    1.52816951  -0.40358984  -0.95187962
C    3.12397885   1.14631963   0.06199998
C    2.45747924   2.31334901   0.10864996
C    4.63188791   1.09981966   0.01136000
O    5.15882778   0.89176965   1.31587946
H    3.74625850  -1.47611952   1.04596961
H    2.05783939  -1.99149930   1.06435966
H    2.56800914  -0.65644974   2.09972906
H    1.00020969  -1.35171950  -0.98559958
H    1.31534946   0.30262986  -1.74863935
H    1.37182939   2.34827900   0.14221995
H    2.97936893   3.26463890   0.12569995
H    5.04682827   2.03787923  -0.37365985
H    4.98637819   0.29702988  -0.64388978
H    4.65510798   1.47017944   1.91412926

