%chk=mol_3366.chk
# wB97XD/Def2SVP opt freq pop=full gfinput

C 6 H 8 O 1

1 2
C    1.02811968   0.07860997  -0.60283977
O    2.36257911  -0.06285997  -0.12267995
C    3.04697895   1.12385964  -0.13174994
C    4.37553835   1.16826952   0.00000000
C    5.07853794   2.38589907   0.00000000
C    5.67361784   3.41660857   0.00000000
C    6.39561749   4.66714811   0.00000000
H    0.56125981  -0.91041964  -0.60454977
H    1.02184963   0.46442983  -1.62797940
H    0.44609985   0.73226976   0.05558998
H    2.43799925   2.01305914  -0.23524992
H    4.93688822   0.24592990   0.11019996
H    5.71553755   5.51474810  -0.12898995
H    7.12789726   4.69939804  -0.81257969
H    6.93442726   4.81110811   0.94154960

