%chk=mol_3381.chk
# wB97XD/Def2SVP opt freq pop=full gfinput

C 6 H 10 O 1

1 2
C    2.79990911  -0.14511995  -0.24273992
O    1.97170925   0.99831963  -0.07250997
C    2.55671906   2.25222921  -0.03477999
C    1.50742948   3.31389880   0.16615993
C    3.87951851   2.48731899  -0.16305995
C    4.54378796   3.77219868  -0.12574996
C    5.86758804   3.90839863  -0.28350988
H    2.15608907  -1.02962959  -0.23875991
H    3.50886846  -0.24228992   0.58566976
H    3.31957865  -0.11256996  -1.20559955
H    0.98765963   3.14525867   1.11541963
H    0.76801974   3.25976872  -0.64031976
H    1.89467919   4.33374834   0.18180993
H    4.55639791   1.64983940  -0.31065989
H    3.95610857   4.66889858   0.03903999
H    6.52337790   3.06026864  -0.45221981
H    6.32675791   4.89165783  -0.24691990

