%chk=mol_4839.chk
# wB97XD/Def2SVP opt freq pop=full gfinput

C 6 H 11 N 1

1 2
C    0.81939971  -1.23220944   0.51582980
C    1.68256938  -0.09166997  -0.02421999
N    0.98009968   1.09736955  -0.49305981
C   -0.11222996   1.53355944   0.36378986
C   -1.38681948   0.77253973   0.13843995
C   -1.52098942  -0.51834977  -0.21030992
C   -0.41891986  -1.53396940  -0.32650986
H    1.44102955  -2.13494921   0.56455976
H    0.52118981  -1.01471961   1.54954934
H    2.27555919  -0.47101983  -0.86540967
H    2.40290928   0.19524993   0.75165969
H    1.64884937   1.85683930  -0.60533977
H    0.16250995   1.53346944   1.42504954
H   -0.32087988   2.57781887   0.10523996
H   -2.29387927   1.36634946   0.23139991
H   -2.52422905  -0.89500964  -0.40091982
H   -0.82642967  -2.49249911   0.02252999
H   -0.15390994  -1.67253947  -1.38080955

