%chk=mol_5451.chk
# wB97XD/Def2SVP opt freq pop=full gfinput

C 4 H 8 N 2 O 1

1 2
C    2.17370915   0.10970996  -1.21996951
O    2.36049914   0.57055980   0.12026996
N    2.88615894   1.87453926   0.05363998
C    2.02892923   2.95437884   0.13390994
C    0.69378972   2.96270895   0.22780992
C    4.26156807   1.91482925   0.14463994
N    5.08790827   0.92752963   0.25855991
H    1.67696929  -0.86364967  -1.17436945
H    3.13718891  -0.01856999  -1.72281933
H    1.53726947   0.79267973  -1.79224932
H    2.55824924   3.90490842   0.12177996
H    0.12345995   2.04014921   0.26059991
H    0.14640994   3.89699841   0.28911990
H    4.66747856   2.94131875   0.10792996
H    4.51841831   0.07346997   0.30759987

