%chk=mol_1950.chk
# wB97XD/Def2SVP opt freq pop=full gfinput

C 5 H 10 N 2

1 2
N    0.92331964  -0.01237000  -0.33455986
C    2.36093926  -0.07905997  -0.01621999
C    3.27344871  -0.89508963  -0.90086967
N    2.69202876  -1.61143947  -2.05089927
C    3.34722877   0.61325979  -0.92679965
C    4.50192833   1.29049957  -0.32496989
C    5.76368761   1.22623956  -0.77109975
H    0.53000981   0.86443967   0.00722000
H    0.42231983  -0.75481969   0.15259995
H    2.58630919  -0.09473997   1.04819953
H    4.08963871  -1.42344952  -0.41382983
H    1.83705926  -1.11379957  -2.31870914
H    2.36214924  -2.52686906  -1.74895930
H    2.95165873   1.11623955  -1.80411935
H    4.29929829   1.91312933   0.54440981
H    6.01889801   0.63066977  -1.64267945
H    6.56149769   1.76869929  -0.27553990

