%chk=mol_0116.chk
# wB97XD/Def2SVP opt pop=full gfinput

C 3 H 5 N 1 O 1

1 2
O    4.177485  -1.900705  -0.870937
C    3.861674   0.286879  -0.174705
C    5.995232   2.090132  -0.148306
C    6.306791   3.940911  -2.284339
N    5.286414   4.757064   0.145244
H    2.007550   0.985511   0.469937
H    7.672912   1.471265   0.847769
H    4.984077   3.869422  -3.845630
H    8.193002   4.577087  -2.758584
H    6.625682   5.707143   1.163523

