%chk=mol_6500.chk
# wB97XD/Def2SVP opt pop=full gfinput

C 5 H 3 N 1 S 1

1 2
C    1.646726   0.186006  -0.006898
C    3.913868   0.133131  -0.001247
C    6.602344   0.072301   0.005575
C    8.196763   2.132726   0.008296
C   10.763540   1.318216   0.015552
N   11.176520  -1.161841   0.018217
S    8.392085  -2.617082   0.011905
H   -0.366720   0.227221  -0.011849
H    7.581808   4.081676   0.005442
H   12.406562   2.537902   0.019067

