%chk=mol_6584.chk
# wB97XD/Def2SVP opt pop=full gfinput

C 4 H 5 N 1 O 1 S 1

1 2
C    1.635747  -0.203032  -0.019710
N    4.353551  -0.016781   0.168167
S    5.850762   2.763422  -0.035319
C    8.866368   1.334184  -0.035262
O   10.885994   2.434496  -0.083583
C    8.535401  -1.428690   0.014683
C    6.066361  -1.964899   0.095545
H    0.707740   1.643892   0.103992
H    0.898206  -1.374247   1.519170
H    1.089786  -1.074876  -1.815120
H   10.101096  -2.721073  -0.035735
H    5.309828  -3.869120   0.114914

