%chk=mol_5962.chk
# wB97XD/Def2SVP opt freq pop=full gfinput

C 5 H 5 N 1 O 1

1 2
O    1.09630954  -0.00366000   0.47341982
C    2.26926899  -0.01057000   0.17139994
C    3.31368876   1.09009957  -0.06798998
C    4.23418808  -0.01269000  -0.66230977
C    3.28365898  -1.12314951  -0.13341995
C    4.37548828   0.02802999  -2.10365915
N    4.48396826   0.06060998  -3.25792861
H    3.67989874   1.53867948   0.86062968
H    2.98430896   1.87660933  -0.75182968
H    5.21366787  -0.04053999  -0.16667993
H    2.93366885  -1.85873938  -0.86222965
H    3.63686872  -1.63551939   0.76680970

