%chk=mol_5733.chk
# wB97XD/Def2SVP opt freq pop=full gfinput

C 4 H 9 N 1 O 2

1 2
N    2.81509900  -1.04422963   1.09678960
C    2.45218897  -0.21458992  -0.05414998
C    2.95058894   1.21907961   0.12930995
C    4.47076845   1.35781956   0.02123999
C    5.24521780   1.16610956   1.30328941
O    5.00824833   0.01179000   1.95283937
O    6.08757734   1.96232927   1.69282937
H    2.51823902  -2.00699925   0.89969969
H    2.21538925  -0.76908970   1.88703930
H    1.36336958  -0.21957992  -0.17041993
H    2.88248897  -0.65111977  -0.96172965
H    2.59150887   1.63218939   1.07943952
H    2.49910903   1.82276940  -0.66788977
H    4.67835855   2.38797903  -0.30025989
H    4.88900805   0.70030969  -0.74865973
H    4.27901840  -0.52617979   1.54869938

