%chk=mol_7009.chk
# wB97XD/Def2SVP opt pop=full gfinput

C 6 H 13 N 1

1 2
C    2.233883   0.337807   0.364453
C    5.039333  -0.058770  -0.194245
C    5.380220  -1.437477  -2.709130
C    6.404528   2.442131  -0.244738
C    7.306286   3.628482   2.183635
C    9.186998   2.558708   0.347672
N   10.806040   4.270328  -1.082681
H    1.974140   1.286526   2.185941
H    1.232423  -1.471568   0.438643
H    1.335734   1.513330  -1.084608
H    5.827802  -1.255742   1.304535
H    4.613917  -0.332403  -4.283896
H    4.422772  -3.271513  -2.682013
H    7.385900  -1.769880  -3.099019
H    5.662753   3.702011  -1.682385
H    7.021466   2.617705   3.942744
H    7.164821   5.662527   2.373175
H   10.110545   0.810900   0.915421
H    9.887368   5.902730  -1.530036
H   11.315000   3.474092  -2.761816

