%chk=mol_4198.chk
# wB97XD/Def2SVP opt freq pop=full gfinput

C 5 H 11 N 1 O 1

1 2
C    0.95214963  -0.02024999   0.15704994
C    2.45695901  -0.00896000  -0.07134998
O    2.70166898   0.00607000  -1.49774945
C    3.22139883   1.06254971   0.75174969
C    4.16180849  -0.03196999   1.28477955
N    5.40376806  -0.01487999   0.50756985
C    3.22115874  -1.10660958   0.71830976
H    0.70493972  -0.03522998   1.22365952
H    0.49547982  -0.90249968  -0.30409989
H    0.48683983   0.86897963  -0.28095987
H    3.57144880   0.42397985  -1.60591936
H    2.61978889   1.53172946   1.53986943
H    3.68368864   1.86791921   0.17063993
H    4.30615807  -0.03439999   2.36781907
H    5.31747818  -0.31322989  -0.46290985
H    6.12295771  -0.62373978   0.90106964
H    3.67919874  -1.89224935   0.10775996
H    2.62077904  -1.60051942   1.49187946

