%chk=mol_0751.chk
# wB97XD/Def2SVP opt pop=full gfinput

C 5 H 10 O 1

1 2
C    1.486704   3.466155  -2.414295
C    0.811600   1.050952  -1.020868
C    3.079743  -0.054953   0.372106
O    2.263098  -2.289158   1.649353
C    4.019447  -3.563400   3.044292
C    6.464602  -3.032481   3.403907
H   -0.173156   4.216754  -3.393495
H    2.962373   3.122205  -3.822330
H    2.165777   4.913326  -1.101389
H    0.067407  -0.347974  -2.356678
H   -0.718342   1.421528   0.327130
H    3.792926   1.323035   1.745767
H    4.572268  -0.525174  -0.986721
H    3.133260  -5.199922   3.906499
H    7.393648  -1.413534   2.564963
H    7.612459  -4.255077   4.585194

