%chk=mol_5319.chk
# wB97XD/Def2SVP opt freq pop=full gfinput

C 5 H 11 N 1 O 1

1 2
C    3.74192858  -0.78046966   0.06113998
O    3.37557864   0.15430994   1.06587958
C    3.36273885   1.51059937   0.59748977
C    2.54128885   2.31355929   1.60242939
C    4.77306843   2.03474927   0.52747983
C    5.47839785   2.15946913  -0.80197972
N    5.04371786   3.34484863  -0.07484997
H    3.65286875  -1.78560925   0.48277983
H    4.77980804  -0.63147974  -0.24887991
H    3.07337880  -0.70652974  -0.80168974
H    2.86075902   1.55995941  -0.37737986
H    2.98942876   2.26905918   2.60150909
H    1.53087938   1.89953923   1.68800938
H    2.46365905   3.36471868   1.30763948
H    5.35541821   1.78323925   1.40686941
H    4.93160820   1.94387925  -1.71151948
H    6.54435778   1.97603929  -0.84377962
H    5.83025742   3.79670858   0.39694986

