%chk=mol_0061.chk
# wB97XD/Def2SVP opt pop=full gfinput

C 4 H 8 O 1

1 2
C    1.809035  -0.056011   0.009770
C    4.680833  -0.015817   0.008598
C    5.699433   2.677477   0.016214
C    8.551048   2.771888   0.013530
O    9.934555   0.914061  -0.008239
H    1.119436  -2.006095   0.007030
H    1.053749   0.894181  -1.665529
H    1.054921   0.889097   1.688432
H    5.378312  -1.031696  -1.657554
H    5.379937  -1.041050   1.668364
H    5.045059   3.693451   1.696936
H    5.041260   3.705564  -1.655608
H    9.364860   4.692285   0.030236

