%chk=mol_1142.chk
# wB97XD/Def2SVP opt pop=full gfinput

C 4 H 5 N 1 O 1

1 2
O    1.696162   1.085591  -1.361359
N    4.290359   0.881047  -1.833734
C    5.511027   2.002203  -0.032862
C    8.350530   2.079757   0.000000
C    9.261396   4.651996   0.000000
C   10.012166   6.772079   0.000000
H    0.958809   0.237879  -2.823515
H    4.516162   2.912881   1.561689
H    9.085237   1.034927  -1.627999
H    8.971852   1.098158   1.712772
H   10.685116   8.670877  -0.008485

