%chk=mol_2923.chk
# wB97XD/Def2SVP opt pop=full gfinput

C 6 H 8 O 1

1 2
C    1.863232  -0.031823   0.033335
C    4.762110   0.000000   0.000000
C    5.779255  -1.402725   2.325648
C    5.608027  -1.461476  -2.340823
O    6.602628  -0.547737  -4.227884
C    5.672996   2.572238   0.000000
C    6.423746   4.692322   0.000000
H    1.083985   0.917254  -1.635993
H    1.113918   0.933279   1.705969
H    1.129055  -1.968225   0.033902
H    5.198882  -0.474850   4.084870
H    7.850867  -1.474213   2.311683
H    5.100843  -3.359120   2.388179
H    5.191097  -3.506954  -2.296924
H    7.105106   6.587453  -0.025927

