%chk=mol_4538.chk
# wB97XD/Def2SVP opt freq pop=full gfinput

C 4 H 7 N 1 O 2

1 2
C    0.69311970   0.11449996  -0.02202999
C    2.17329907  -0.16066994   0.03251999
C    2.62222910  -1.59255934  -0.11987995
N    2.98049879   0.84222972   0.19560993
O    4.32417870   0.42760983   0.21058992
C    5.14498806   1.50064945   0.42597982
O    4.84831810   2.67330885   0.59856975
H    0.49567983   1.18835950   0.03659999
H    0.20271993  -0.38624987   0.81706971
H    0.28697991  -0.27284989  -0.96033967
H    1.75911927  -2.26362920  -0.12003995
H    3.27824879  -1.86998928   0.70951974
H    3.15784883  -1.70574939  -1.06629956
H    6.18220758   1.13124967   0.42334986

