%chk=mol_4621.chk
# wB97XD/Def2SVP opt freq pop=full gfinput

C 5 H 11 N 1 O 1

1 2
C    1.50183952   0.14524995   0.25447991
C    2.88397908  -0.12012995  -0.35075989
C    2.71656919  -0.96013963  -1.63460934
O    3.97854829  -1.26895952  -2.22185922
N    3.53759885   1.16878963  -0.67740977
C    4.08616829   1.85270941   0.49650982
C    4.98897791   1.17074955  -0.49072984
H    1.57470942   0.70854974   1.19101954
H    0.99267966  -0.79839969   0.47853982
H    0.86523968   0.71357977  -0.43300983
H    3.47956872  -0.70176977   0.36622986
H    2.10926914  -0.43782985  -2.38242912
H    2.22083902  -1.90875936  -1.40494943
H    4.37793827  -0.40267986  -2.42418909
H    3.96588850   1.40173948   1.47318935
H    4.03301859   2.93365908   0.47671983
H    5.55279779   1.79476929  -1.17457962
H    5.48090792   0.25091991  -0.19555993

