%chk=mol_6092.chk
# wB97XD/Def2SVP opt pop=full gfinput

C 6 H 11 N 1

1 2
C    1.923118   0.088553   0.155392
C    4.457354   0.005783   0.043653
C    5.904676  -2.441791  -0.008220
C    7.766585  -2.438748  -2.212529
C    9.369640  -0.035206  -2.221354
N    7.780626   2.226853  -2.279614
C    6.084653   2.335342  -0.098663
H    0.909336   1.871736   0.153597
H    0.797956  -1.625618   0.225709
H    4.643209  -4.077254  -0.169055
H    6.939169  -2.647639   1.777042
H    8.996892  -4.100762  -2.090132
H    6.727293  -2.588112  -4.002856
H   10.616122   0.006066  -0.566049
H   10.585735  -0.040818  -3.895840
H    8.898134   3.792926  -2.277290
H    7.180128   2.525789   1.651526
H    4.917388   4.038080  -0.261784

