%chk=mol_6624.chk
# wB97XD/Def2SVP opt pop=full gfinput

C 6 H 11 N 1

1 2
C    1.849097   0.009543  -0.045731
C    4.728038  -0.014324  -0.006085
C    5.815046  -2.407624   1.231497
C    6.353864  -1.685163   3.991952
N    8.590979  -2.918399   4.988499
C    6.675684   1.108683   3.828264
C    5.774889   2.032476   1.652471
H    1.128299  -1.538086  -1.214905
H    1.138125   1.786207  -0.832519
H    1.049516  -0.207832   1.853160
H    5.451255   0.172286  -1.937026
H    7.571074  -2.925655   0.248442
H    4.553409  -4.044052   1.094265
H    4.727415  -2.120027   5.198164
H   10.094974  -2.502394   3.859690
H    8.363682  -4.825624   4.872696
H    7.450529   2.242670   5.341273
H    5.745675   4.016235   1.159744

