%chk=mol_6515.chk
# wB97XD/Def2SVP opt freq pop=full gfinput

C 5 H 5 N 1 S 1

1 2
C    2.67705917  -1.14653969   0.38081986
C    2.21298909   0.09203997   0.16259995
C    2.99786901   1.28343952   0.06789998
C    2.43803906   2.52579904  -0.15829994
S    3.68459868   3.69961858  -0.20780993
N    4.93006849   2.63688898   0.05649998
C    4.41708851   1.41456938   0.18066992
H    1.99033928  -1.98612928   0.43508986
H    3.73055840  -1.36729944   0.51060981
H    1.13511968   0.20072992   0.04647998
H    1.40262949   2.80304909  -0.29292989
H    5.12158823   0.61232972   0.35834989

