%chk=mol_5151.chk
# wB97XD/Def2SVP opt freq pop=full gfinput

C 4 H 7 N 1 O 2

1 2
C    1.00305963   0.00474000  -0.04736998
N    2.43547916   0.18258993   0.09342996
C    3.29774880  -0.98882961   0.01936999
C    3.56838870  -1.44109941  -1.40700948
O    2.80825901  -1.27329946  -2.35746908
C    3.00856876   1.43384945   0.00621000
O    4.21241856   1.65467942  -0.03862998
H    0.48032981   0.95812964   0.07201997
H    0.65556973  -0.69228977   0.72030973
H    0.77687967  -0.39613986  -1.03833961
H    2.85165882  -1.81548941   0.58053982
H    4.26682806  -0.75268972   0.47235984
H    4.48670816  -2.04049921  -1.53158939
H    2.26920915   2.25157905   0.00588000

