%chk=mol_2755.chk
# wB97XD/Def2SVP opt pop=full gfinput

C 6 H 12 O 1

1 2
C    1.552618  -0.241734   0.281116
C    4.360222   0.033864   0.505407
C    5.771148   2.118383   0.095488
C    4.656153   4.657835  -0.587459
C    8.639809   2.176795   0.320327
C    9.954775  -0.216109   1.250394
O    9.645144   2.767655  -2.110579
H    1.117603  -1.948327  -0.805552
H    0.637575   1.335110  -0.683627
H    0.713447  -0.447412   2.159352
H    5.287283  -1.722391   1.041409
H    2.611280   4.754948  -0.325052
H    5.070437   5.116925  -2.561543
H    5.465541   6.140041   0.610344
H    9.172220   3.718206   1.598311
H    9.661301  -1.798698  -0.052988
H    9.304425  -0.761220   3.136719
H   12.002067   0.087381   1.335507
H    8.891577   1.577468  -3.291355

