%chk=mol_7101.chk
# wB97XD/Def2SVP opt freq pop=full gfinput

C 6 H 9 N 1

1 2
C    0.59584981   0.02862999  -0.18213993
C    2.08312917   0.03647999  -0.33133987
C    2.89534879   0.89935964   0.29831991
C    4.39085817   0.91071969   0.13730995
C    5.09960842   0.60532975   1.45615947
C    6.55778790   0.62750977   1.28069949
N    7.70847750   0.64649975   1.14228964
H    0.26449990  -0.94568962   0.18979993
H    0.12308995   0.20581992  -1.15292954
H    0.24542990   0.79675967   0.51442981
H    2.49899888  -0.71374977  -1.00114965
H    2.46911907   1.65448940   0.95708966
H    4.69134855   1.89996922  -0.23081991
H    4.70249844   0.18876994  -0.62882978
H    4.79143810  -0.37842986   1.83005929
H    4.81285810   1.34086955   2.21734905

