%chk=mol_0212.chk
# wB97XD/Def2SVP opt pop=full gfinput

C 4 H 10 O 1

1 2
C    1.863176  -0.003723  -0.011414
C    4.749997  -0.065706   0.011433
C    5.719181  -1.350531   2.407152
C    5.770581  -1.396904  -2.339197
O    5.663736   2.474105   0.024888
H    1.158534   0.984831  -1.689264
H    1.136368   1.034304   1.626601
H    1.059929  -1.910060   0.009241
H    5.067187  -0.346538   4.097323
H    7.789035  -1.321334   2.473500
H    5.087313  -3.316734   2.528151
H    5.139810  -0.438776  -4.063403
H    5.154511  -3.369873  -2.425426
H    7.840776  -1.352042  -2.369868
H    5.053789   3.304205  -1.497060

