%chk=mol_3229.chk
# wB97XD/Def2SVP opt freq pop=full gfinput

C 5 H 8 O 2

1 2
C    1.86340940  -0.96224964  -0.11602996
C    3.22352886  -0.35998988   0.11496996
O    4.18867874  -1.05364966   0.42933986
C    3.35797882   1.10820961  -0.10261996
C    4.53967810   1.72157931   0.06491998
C    4.81114817   3.17963886  -0.12062996
O    3.68906856   3.84271836  -0.67972976
H    1.07652962  -0.21071993  -0.01338000
H    1.68324935  -1.74075937   0.63073975
H    1.82605922  -1.39396954  -1.11942959
H    2.46549892   1.65170932  -0.39052984
H    5.40221786   1.13219953   0.37577987
H    5.66960812   3.32739878  -0.78307974
H    5.04029846   3.64107847   0.84466970
H    3.67138863   3.60869861  -1.62334943

