%chk=mol_4324.chk
# wB97XD/Def2SVP opt pop=full gfinput

C 5 H 11 N 1 O 1

1 2
C    1.951823  -0.014324  -0.244190
C    4.844351  -0.131695  -0.039722
C    5.558063  -1.443089   2.454017
C    5.934836  -1.662468  -2.251004
C    5.942867   2.554513  -0.065082
N    5.469359   3.968312  -2.166590
O    7.190767   3.464605   1.664376
H    1.339192   0.784388  -2.052809
H    1.149539   1.170137   1.253625
H    1.112690  -1.900876  -0.083715
H    4.817460  -0.404893   4.086873
H    7.614293  -1.562161   2.677799
H    4.802002  -3.369911   2.535861
H    5.366765  -0.882313  -4.082054
H    5.291479  -3.629899  -2.188889
H    8.005409  -1.666474  -2.200680
H    4.460320   3.348614  -3.660702
H    6.181823   5.742254  -2.209203

