%chk=mol_6593.chk
# wB97XD/Def2SVP opt freq pop=full gfinput

C 5 H 7 N 1 S 1

1 2
C    2.82513881  -1.26766944   0.43059984
N    2.35964894   0.01379000  -0.05706998
C    3.13102865   1.13344955  -0.00706000
C    2.65932894   2.42182899  -0.17666994
C    3.67947865   3.41268873  -0.08174997
C    4.91285849   2.85257888   0.15318994
S    4.83080816   1.15017951   0.25404990
H    2.04251933  -2.01850939   0.28078991
H    3.04668880  -1.22532952   1.50211942
H    3.71168876  -1.60888934  -0.11380996
H    1.34973943   0.12554996  -0.04002998
H    1.61751938   2.64753914  -0.36432984
H    3.51544857   4.47817850  -0.18461993
H    5.86123800   3.35898876   0.26676992

