%chk=mol_4126.chk
# wB97XD/Def2SVP opt freq pop=full gfinput

C 5 H 9 N 1 O 1

1 2
C    0.91376966   0.03482999   0.15910994
C    2.41836905  -0.06322998   0.03820999
N    3.09633875   0.90507966   0.91654968
C    4.00206852  -0.00966000   1.36575949
O    5.07987785   0.15061994   1.88061929
C    3.12976885  -1.17693961   0.85961968
C    3.84246874  -2.24947929   0.06491998
H    0.43443984  -0.78987968  -0.37815988
H    0.54980981   0.97117960  -0.27689990
H    0.58115977  -0.00542000   1.20182955
H    2.76488900   0.03659999  -0.99850965
H    3.44158864   1.82838929   0.69042975
H    2.52087903  -1.60608935   1.66671944
H    4.48079824  -1.82186925  -0.71494973
H    3.11832881  -2.91477895  -0.41596985
H    4.47261858  -2.85863900   0.72101974

