%chk=mol_5057.chk
# wB97XD/Def2SVP opt freq pop=full gfinput

C 5 H 11 N 1 O 1

1 2
C    1.56457937  -0.19290993   0.33361986
N    2.95857906   0.15385994   0.58142978
C    3.22600865   1.59498942   0.45514983
C    2.43646908   2.44543910   1.45521951
C    4.70356846   1.77417934   0.69478971
C    5.68090773   1.87765920  -0.44975984
O    5.23105812   3.03883886   0.26119989
H    1.46014941  -1.28239954   0.32741988
H    1.21940947   0.18148994  -0.63572973
H    0.90686965   0.18213993   1.12401962
H    3.53648877  -0.34328988  -0.09586997
H    2.97716904   1.92285919  -0.56362981
H    2.61117887   2.11588931   2.48378897
H    1.36197948   2.40899897   1.25641954
H    2.74244905   3.49426866   1.39088953
H    5.04465818   1.39072943   1.64745927
H    5.32522821   1.74956930  -1.46330953
H    6.70092773   1.55694938  -0.28317988

