%chk=mol_4600.chk
# wB97XD/Def2SVP opt freq pop=full gfinput

C 4 H 7 N 1 O 2

1 2
C    0.89514971  -0.21685992  -0.13683996
C    2.30858898  -0.69726974  -0.01917999
C    2.68214917  -1.94915938  -0.32962990
O    3.18247890   0.25744990   0.54170978
C    4.42042828   0.38328987   0.01230000
N    5.28228807   1.17713964   0.55034983
O    6.47387743   1.12753963  -0.18693992
H    0.84042972   0.62724978  -0.83241969
H    0.52596980   0.11461996   0.83900970
H    0.22207992  -0.99972963  -0.50247985
H    1.96735919  -2.66644907  -0.72193974
H    3.69547868  -2.30463910  -0.17649993
H    4.60983849  -0.21768992  -0.89164966
H    7.04257727   1.75525939   0.29871988

