%chk=mol_5509.chk
# wB97XD/Def2SVP opt freq pop=full gfinput

C 4 H 6 N 2 O 1

1 2
N    1.08229959  -0.08940996  -0.14145994
C    2.40646911   0.08919997  -0.06728997
C    3.19793892   1.21123946  -0.04105999
C    4.53420830   0.74619973   0.05334998
C    4.45715809  -0.62556976   0.08035997
N    5.38312817  -1.58776939   0.15615995
O    3.16519904  -1.03217959   0.00637000
H    0.45468983   0.66876978   0.09908997
H    0.72591978  -1.01191962   0.08448997
H    2.85884881   2.23562932  -0.08656996
H    5.43609810   1.33731949   0.09895996
H    5.08998775  -2.53288913  -0.06893998
H    6.34709787  -1.38417959  -0.07952997

