%chk=mol_5288.chk
# wB97XD/Def2SVP opt freq pop=full gfinput

C 4 H 9 N 1 O 2

1 2
C    2.19594908  -0.83275974  -1.05765963
O    1.88450933   0.47534984  -0.59762973
C    3.05631876   1.19656956  -0.14535995
C    3.54071856   2.30717897  -1.04583955
N    2.87683892   2.56202912  -2.33628917
C    2.82075906   2.63393903   0.23656991
O    3.64635849   3.15153885   1.29406953
H    1.27753961  -1.29916954  -1.42332947
H    2.59576893  -1.43628943  -0.23738991
H    2.91879892  -0.78592968  -1.87774932
H    3.79239845   0.66265976   0.44836986
H    4.61266851   2.48946929  -1.05657959
H    1.91205931   2.22409916  -2.27842927
H    3.30576873   1.98932922  -3.06337881
H    1.80040932   2.99806881   0.17596994
H    3.71484852   4.11968851   1.22272956

