%chk=mol_0594.chk
# wB97XD/Def2SVP opt pop=full gfinput

C 4 H 8 O 2

1 2
C    1.329271   2.221902  -0.463096
C   -1.398265   2.218331   0.487360
O   -2.704652   0.004384  -0.376226
C   -1.401232  -2.224416   0.458164
C    1.325700  -2.219975  -0.491707
O    2.631595  -0.006709   0.371067
H    1.390971   2.282600  -2.533065
H    2.345415   3.868534   0.265790
H   -2.410856   3.874978  -0.220758
H   -1.459341   2.252213   2.557366
H   -1.463480  -2.284792   2.528359
H   -2.418056  -3.870858  -0.270590
H    2.337799  -3.877888   0.215051
H    1.386398  -2.254368  -2.561958

