%chk=mol_4976.chk
# wB97XD/Def2SVP opt freq pop=full gfinput

C 5 H 9 N 1 O 1

1 2
C    1.04640961   0.00888000  -0.02725999
N    2.49669909  -0.02004999   0.08627997
C    3.02169895   1.07882953   0.90584970
C    4.45811796   0.67555976   1.21497953
C    4.29846859  -0.81156969   1.32628942
O    5.12241793  -1.55773938   1.84021938
C    2.98379898  -1.25588953   0.72017974
H    0.69574976  -0.82099968  -0.65132976
H    0.71970975   0.93477964  -0.51361978
H    0.54846984  -0.06019998   0.94705963
H    2.45676899   1.18347955   1.84165931
H    2.98607874   2.03488922   0.37344986
H    5.13640833   0.90410966   0.38898987
H    4.81182814   1.10849953   2.15394902
H    3.14977860  -2.03941917  -0.02307999
H    2.33378911  -1.60334945   1.53155947

