%chk=mol_2522.chk
# wB97XD/Def2SVP opt freq pop=full gfinput

C 6 H 10 O 1

1 2
C    0.90741968  -0.07561997   0.36206988
C    2.36636925   0.08255997  -0.01439999
O    2.98485875   1.16153955   0.74181974
C    4.13782835   0.31920987   1.00313962
C    3.35891867  -0.93869966   0.58712983
C    4.02897835  -1.84836924  -0.37648985
C    5.04235840  -2.62428904   0.02454999
H    0.48164982  -0.96469963  -0.11413996
H    0.32786986   0.79260969   0.03151999
H    0.77831972  -0.17523994   1.44505954
H    2.48642921   0.26826990  -1.08995962
H    4.98468781   0.61029977   0.37192985
H    4.43501806   0.35310987   2.05508924
H    2.94663882  -1.48470950   1.44590950
H    3.68158865  -1.88708925  -1.40520942
H    5.40964794  -2.61455917   1.04707956
H    5.53342772  -3.29689860  -0.67351979

