%chk=mol_5820.chk
# wB97XD/Def2SVP opt freq pop=full gfinput

C 4 H 8 N 2 O 1

1 2
N    4.35128880  -1.42452943  -0.29628989
C    3.27754879  -0.58971977  -0.36085984
N    2.10138917  -1.07603955  -0.59682977
C    3.36442876   0.87900972  -0.15810995
C    4.52586842   1.54248941  -0.06251998
C    4.61853838   3.01811886   0.12324995
O    5.30311775   3.26259875   1.34120953
H    5.13950777  -1.09447956   0.24888991
H    4.14821863  -2.39922929  -0.11958995
H    2.17222929  -2.08268929  -0.75301969
H    2.40834904   1.39158952  -0.11370996
H    5.47679806   1.02611959  -0.14823996
H    3.63972855   3.50681853   0.16322994
H    5.19339848   3.46546865  -0.69286972
H    4.74655867   2.90001893   2.05148935

