%chk=mol_4723.chk
# wB97XD/Def2SVP opt freq pop=full gfinput

C 4 H 10 N 2 O 1

1 2
C    1.79805934  -0.19039993   0.44001982
C    3.24972892   0.02791999   0.05126998
N    3.57172847   1.44377947   0.24175991
C    4.79254818   1.72261930  -0.06738997
N    5.34413815   2.97992897   0.02962999
C    6.51205778   3.37766862  -0.72828972
O    4.37056828   3.99111843   0.08912997
H    1.52147937  -1.24204957   0.31431988
H    1.13139963   0.41745985  -0.18093993
H    1.62683940   0.08811997   1.48524940
H    3.39058876  -0.26283988  -0.99640960
H    3.89033842  -0.60156977   0.68007976
H    5.51060772   0.96688962  -0.43361983
H    7.31960726   2.64995885  -0.60192978
H    6.87888718   4.34903812  -0.38179985
H    6.27314758   3.45440865  -1.79359937
H    3.58309865   3.50863862   0.42794985

