%chk=mol_6643.chk
# wB97XD/Def2SVP opt freq pop=full gfinput

C 4 H 6 N 2 S 1

1 2
N    0.99052966   0.00099000  -0.07232998
C    2.34339905   0.02820999  -0.04270998
C    3.08294868   1.18619955  -0.08306997
S    4.76671839   0.87244964   0.00959000
C    4.50280857  -0.82019967   0.09296996
C    3.16510892  -1.13288951   0.04259998
N    2.68973899  -2.39965916   0.06304998
H    0.46399981   0.85217971   0.09951996
H    0.52037978  -0.82034969   0.29579988
H    2.72944903   2.20426917  -0.15329994
H    5.34509802  -1.49209952   0.16543993
H    1.76193941  -2.56859899  -0.31316987
H    3.31904888  -3.17796898  -0.10799996

