%chk=mol_3952.chk
# wB97XD/Def2SVP opt freq pop=full gfinput

C 4 H 8 N 2 O 1

1 2
C    0.88668966   0.14337996   0.08206997
C    2.39303899  -0.00507000   0.10360996
C    3.19720888   1.07892966   0.86288965
C    3.83245873  -0.11670996   1.59563947
O    4.83617830  -0.33676988   2.23665929
N    2.82374907  -0.95056963   1.15995967
N    3.12439871  -2.28349924   0.84583968
H    0.41508985  -0.75883973  -0.32212988
H    0.59382975   0.98485965  -0.55347979
H    0.47718984   0.31906989   1.08295965
H    2.81297898  -0.25384989  -0.88021970
H    2.62811899   1.74075937   1.52129936
H    3.89102864   1.65673947   0.24799991
H    2.31150913  -2.84784889   1.09747958
H    3.86768866  -2.58348918   1.48703945

