%chk=mol_6157.chk
# wB97XD/Def2SVP opt pop=full gfinput

C 4 H 5 N 1 O 2

1 2
O    2.639059   0.749881  -2.056098
C    3.574247   0.714676   0.063551
C    5.807242   2.277933   0.704622
N    7.563081   2.777425  -1.403273
C    6.081668   4.889723  -0.385296
C    7.544959   6.792507   1.032622
O    6.737913   7.651312   3.023789
H    2.807566  -0.475342   1.592680
H    6.676195   1.899458   2.520876
H    6.754410   2.143138  -3.051832
H    4.577162   5.619233  -1.568076
H    9.353710   7.409673   0.201615

