%chk=mol_5707.chk
# wB97XD/Def2SVP opt freq pop=full gfinput

C 5 H 11 N 1 O 1

1 2
N    3.73759842  -1.15553951  -0.30667987
C    2.60331893  -0.27727988  -0.06764998
C    2.96532893   1.17561960   0.02735999
C    4.18838835   1.72367942  -0.08595996
C    4.45779800   3.20310879   0.00003000
C    5.10105801   3.74146843  -1.27877951
O    4.18229818   3.71016860  -2.36675930
H    3.39964867  -2.11110926  -0.40484983
H    4.32891846  -1.15367961   0.52282983
H    2.10061932  -0.58042979   0.85743970
H    1.88404930  -0.40026987  -0.88480967
H    2.11542916   1.83515930   0.19774993
H    5.05239820   1.08638954  -0.26253989
H    5.13150787   3.38097882   0.84578967
H    3.52721858   3.74896860   0.19599994
H    5.99349785   3.17045879  -1.55696940
H    5.39992809   4.78426838  -1.13242948
H    3.88338852   2.78676891  -2.45569921

