%chk=mol_1814.chk
# wB97XD/Def2SVP opt freq pop=full gfinput

C 5 H 10 N 2

1 2
C    1.16050959   0.76106972   0.76005971
N    2.43964911   1.46155941   0.69546974
C    3.21235895   1.02287960  -0.23670991
N    4.46312857   1.48785937  -0.55340976
C    5.25105810   2.06265926   0.50048983
C    6.46929789   1.38940942  -0.13356994
C    5.46620750   0.52233982  -0.89570969
H    0.53072977   1.01757967  -0.09807996
H    0.63107979   1.06649971   1.66778946
H    1.29279959  -0.32562986   0.80549967
H    2.89650893   0.20626992  -0.91363966
H    5.00726795   1.68854928   1.50061941
H    5.24893808   3.15497875   0.48712981
H    7.06637764   2.05069923  -0.77102971
H    7.12827730   0.85582966   0.55609983
H    5.62852764   0.43959981  -1.97277927
H    5.29563761  -0.46599981  -0.45504984

