%chk=mol_5417.chk
# wB97XD/Def2SVP opt pop=full gfinput

C 4 H 7 N 1 O 2

1 2
C    6.794114  -2.247111  -1.155303
O    8.478880  -0.145792  -1.274148
C    8.102995   1.585953   0.589746
O    6.455531   1.506981   2.209487
C    9.909705   3.719680   0.378814
C   10.751257   5.136692   2.701477
N   12.420112   3.296060   1.520814
H    7.276598  -3.543104  -2.690913
H    4.839437  -1.623313  -1.416860
H    7.009032  -3.252464   0.639521
H    9.895098   4.712127  -1.410907
H    9.954850   4.603713   4.512023
H   11.260765   7.108829   2.513619
H   13.786251   4.160874   0.467991

