%chk=mol_2039.chk
# wB97XD/Def2SVP opt pop=full gfinput

C 5 H 8 N 2

1 2
N    2.244295   0.437453   0.097567
C    4.918712  -0.193111  -0.058695
C    5.451217  -1.511006  -2.441885
C    5.874365  -2.607331  -4.383824
C    6.422083   2.212888  -0.200972
C    6.899541   3.746760   2.161866
N    8.949251   2.372986   0.945184
H    1.896832   1.189148   1.831863
H    1.238356  -1.200883   0.012321
H    5.470606  -1.357617   1.562237
H    6.250723  -3.573510  -6.110221
H    6.120558   3.263840  -1.938216
H    6.279881   3.008992   3.966630
H    6.934180   5.786908   2.007664
H   10.069103   3.550833  -0.097718

