%chk=mol_1538.chk
# wB97XD/Def2SVP opt pop=full gfinput

C 5 H 12 N 2

1 2
C    1.772695  -0.281815  -0.214465
C    4.611348   0.296781  -0.150044
N    5.803179  -0.892820  -2.350422
C    5.352196   3.079611  -0.038891
C    3.663234   4.985249  -0.140293
C    8.173141   3.511754   0.302073
N    8.936251   6.164646   0.424262
H    0.816664   0.503725   1.444072
H    1.440463  -2.325743  -0.200084
H    0.866439   0.484072  -1.912252
H    5.374929  -0.610344   1.551276
H    5.005507  -0.165578  -3.946315
H    5.373928  -2.769734  -2.360816
H    1.648503   4.680549  -0.344913
H    4.246441   6.947711   0.020957
H    9.211924   2.629762  -1.255874
H    8.776871   2.589340   2.055096
H    8.628622   6.945254  -1.308730
H   10.840262   6.233394   0.692263

