%chk=mol_6118.chk
# wB97XD/Def2SVP opt pop=full gfinput

C 4 H 5 N 1 O 2

1 2
O    5.481094  -1.579225  -1.647085
C    4.124535   0.167600  -0.096924
C    5.428522   2.647960   0.134719
N    4.300374   4.568734   1.343954
O    5.987786   6.566269   1.227264
C    8.091222   5.830977  -0.033410
C    7.841815   3.363013  -0.767777
H    4.458695  -3.103422  -1.717043
H    3.902247  -0.684761   1.776097
H    2.248207   0.431103  -0.930690
H    9.543911   7.249141  -0.237879
H    9.180308   2.224680  -1.802742

