%chk=mol_3156.chk
# wB97XD/Def2SVP opt pop=full gfinput

C 5 H 10 O 2

1 2
C    4.431597  -0.962286  -2.663493
C    4.690206   0.046431   0.017045
O    6.013921  -1.760903   1.519945
C    6.146183   2.514829   0.049038
C    4.766721   4.860999  -0.948076
O    5.397417   6.268845   1.313265
C    6.152514   3.954214   2.567703
H    3.366755   0.343174  -3.861561
H    3.468819  -2.793828  -2.657182
H    6.288291  -1.263150  -3.529234
H    2.809267   0.277639   0.850528
H    7.565310  -2.217064   0.643301
H    8.054882   2.329503  -0.744703
H    2.716444   4.703528  -1.172915
H    5.592096   5.712737  -2.640117
H    8.002027   4.136119   3.469896
H    4.743817   3.377356   3.967442

