%chk=mol_4956.chk
# wB97XD/Def2SVP opt pop=full gfinput

C 5 H 11 N 1 O 1

1 2
C    1.929883  -0.663048  -0.071110
N    4.686842  -0.811297  -0.160079
C    5.674791  -1.233311  -2.702044
C    5.854560   1.334657  -1.457810
C    8.354592   2.298568  -0.511454
C    8.091940   3.527023   2.086768
O    7.673932   1.660502   3.982163
H    1.351891   0.538213   1.511233
H    1.149785  -2.550771   0.256209
H    1.059362   0.093352  -1.792991
H    4.353249  -1.484701  -4.245572
H    7.354588  -2.399007  -2.815106
H    4.634043   2.840013  -2.123920
H    9.067303   3.694925  -1.863497
H    9.736776   0.757856  -0.412867
H    6.521294   4.872678   2.137620
H    9.830110   4.532093   2.580421
H    6.500620   0.427702   3.249195

