%chk=mol_2699.chk
# wB97XD/Def2SVP opt pop=full gfinput

C 6 H 8 O 1

1 2
C    1.889726   0.000000   0.000000
C    4.618491   0.000000   0.000000
C    6.867567   0.000000   0.000000
C    9.589472   0.137837  -0.131487
C   10.871254   2.082648   1.593606
C   12.516034  -0.143090   2.402390
O   10.756510  -1.918412   1.273392
H    1.145155   1.929165   0.022204
H    1.145136  -0.983735   1.659652
H    1.145023  -0.945373  -1.681743
H   10.308664   0.156564  -2.076488
H    9.696657   2.859307   3.108278
H   11.864098   3.613232   0.623118
H   14.372539  -0.255378   1.499668
H   12.698676  -0.418593   4.442406

