%chk=mol_0602.chk
# wB97XD/Def2SVP opt freq pop=full gfinput

C 5 H 6 O 1

1 2
C    0.24081992  -1.39868951   0.04184998
O   -1.10691965  -0.89289963   0.01502999
C   -1.27550960   0.46463981  -0.00137000
C   -0.29020992   1.36991954  -0.01119000
C    1.07852960   0.93938965  -0.00837000
C    1.33921957  -0.37253985   0.01631999
H    0.35245988  -2.06650925  -0.81936967
H    0.33975989  -2.00810909   0.94667965
H   -2.32599926   0.72463977  -0.00751000
H   -0.50531983   2.43207908  -0.02415999
H    1.86866927   1.68321931  -0.02631999
H    2.36330914  -0.72836971   0.01966999

