%chk=mol_0972.chk
# wB97XD/Def2SVP opt freq pop=full gfinput

C 4 H 7 N 1 O 1

1 2
C    1.08553958  -0.00295000   0.13180995
C    2.58320904   0.08557997  -0.04519998
C    3.30740881  -1.21895957  -0.06479998
C    4.27412844  -1.47180939   0.82369971
N    3.09026885   1.26907957  -0.20538992
O    4.47053814   1.22521961  -0.43255985
H    0.74596977   0.78719974   0.80783969
H    0.79492968  -0.97061962   0.55054981
H    0.60225976   0.12649995  -0.84090972
H    2.97751904  -1.95434928  -0.78789967
H    4.58164835  -0.72824973   1.55307937
H    4.79075813  -2.42572904   0.82634968
H    4.69470835   2.16829920  -0.53374982

