%chk=mol_7141.chk
# wB97XD/Def2SVP opt freq pop=full gfinput

C 7 H 10

1 2
C    1.00646961   0.02607999   0.08551997
C    2.49409890   0.00564000   0.01062000
C    3.26362872  -1.08585966  -0.10940996
C    4.72014856  -0.75242972  -0.13819996
C    4.74283791   0.77555966  -0.21958992
C    3.32181859   1.19400954   0.05707998
C    2.92565894   2.44501901   0.31614986
H    0.58772981  -0.98236966  -0.00100000
H    0.58701980   0.62840974  -0.72717971
H    0.67055970   0.44407985   1.03991961
H    2.89077878  -2.09976912  -0.15641995
H    5.21014786  -1.10977960   0.77406973
H    5.21904802  -1.20332956  -1.00145960
H    5.03745794   1.09298968  -1.22721958
H    5.45064783   1.20000947   0.49957982
H    3.64006877   3.26156878   0.33452988
H    1.88953924   2.68978882   0.52284980

