%chk=mol_3827.chk
# wB97XD/Def2SVP opt freq pop=full gfinput

C 5 H 9 N 1 O 1

1 2
C    1.70303929  -0.11553995  -0.12884995
C    0.86401963  -1.19026947   0.56421977
C   -0.42208984  -1.51413941  -0.17655994
C   -1.48105943  -0.43647984  -0.25429991
N   -1.38879943   0.84036970  -0.02396999
O   -0.14365995   1.27420950   0.45778981
C    0.88611966   1.10866964  -0.51482981
H    2.20362902  -0.51942980  -1.01646960
H    2.49829912   0.18588993   0.56475979
H    1.46874952  -2.10031915   0.65564972
H    0.62888974  -0.87279969   1.58774948
H   -0.89972967  -2.37393904   0.30790988
H   -0.20191993  -1.82273936  -1.20509958
H   -2.46323919  -0.78259975  -0.62036979
H    1.51703942   2.00338912  -0.50990981
H    0.47155982   1.01129961  -1.52612936

