%chk=mol_0127.chk
# wB97XD/Def2SVP opt freq pop=full gfinput

C 5 H 8

1 2
C    1.02348959  -0.02362999   0.22562991
C    2.51114893  -0.10396996   0.01348000
C    3.07579875  -1.22430956  -0.46783984
C    3.34507895   1.04411960   0.33331987
C    2.92184901   2.21904898   0.81734973
H    0.58740979   0.77638972  -0.38223985
H    0.79135972   0.16537994   1.27924943
H    0.51953983  -0.95523965  -0.05510998
H    2.47865915  -2.09672928  -0.71536970
H    4.14601851  -1.30927956  -0.63045973
H    4.41533852   0.93092966   0.16031994
H    1.87863934   2.43035913   1.02311957
H    3.63285851   3.01351881   1.02223957

