%chk=mol_1540.chk
# wB97XD/Def2SVP opt pop=full gfinput

C 5 H 14 N 2

1 2
C    1.586935  -0.225784  -0.016478
C    4.467483  -0.043294   0.068503
N    5.540904  -1.672502  -1.925839
C    5.552431   2.721319  -0.105447
C    4.546549   4.186858  -2.403939
C    4.968940   4.212672   2.317239
N    8.336943   2.556894  -0.401453
H    0.717567   0.895522   1.487271
H    0.975136  -2.186829   0.253110
H    0.818913   0.416023  -1.827573
H    5.090072  -0.858389   1.872341
H    7.407632  -1.155284  -2.064110
H    4.803967  -1.148613  -3.626630
H    4.929048   3.197284  -4.181491
H    5.421851   6.060976  -2.540283
H    2.503528   4.489252  -2.271867
H    5.674848   3.228937   3.997451
H    2.934140   4.497889   2.559313
H    5.846340   6.089416   2.277611
H    9.078017   1.643230   1.127826
H    9.094704   4.329136  -0.376830

