%chk=mol_4156.chk
# wB97XD/Def2SVP opt freq pop=full gfinput

C 4 H 6 N 2 O 1

1 2
C    1.02937961   0.01019000   0.00096000
C    2.52522898   0.04722998  -0.00639000
N    3.16203880   1.17335951  -0.03748999
N    4.55747795   1.20599961  -0.04539999
C    5.17569828   0.07402997  -0.01159000
C    4.47722816  -1.24756956   0.03652998
O    3.06636882  -1.19139957   0.02753999
H    0.66238976  -1.01991963  -0.01557999
H    0.64866972   0.53344977  -0.88009965
H    0.65980971   0.50250983   0.90490967
H    6.27628756   0.06290998  -0.01577999
H    4.80977821  -1.83926928  -0.82214969
H    4.80152845  -1.77133930   0.94106960

