%chk=mol_6651.chk
# wB97XD/Def2SVP opt freq pop=full gfinput

C 4 H 2 N 2 S 1

1 2
N    0.84715968   0.16112994  -0.00763000
C    2.00536919   0.10913996  -0.00347000
C    3.42699862   0.06482998   0.00162000
C    4.29060841   1.14147961   0.00379000
C    5.64105797   0.68550974   0.00897000
N    5.83207798  -0.63094980   0.01075000
S    4.34612846  -1.37388945   0.00609000
H    3.98545837   2.17998910   0.00183000
H    6.52378750   1.31354952   0.01158000

