%chk=mol_1619.chk
# wB97XD/Def2SVP opt pop=full gfinput

C 5 H 10 N 2

1 2
C    1.478125   0.030916   0.000227
N    4.197422   0.075343   0.390002
C    5.708163  -1.560498  -1.224486
C    4.936891  -2.702913  -3.688897
N    5.311718  -0.678941  -5.578207
C    4.958887   1.751738  -4.251223
C    5.718122   1.251339  -1.577940
H    0.658211   1.785168   0.729283
H    0.658966  -1.526540   1.088615
H    0.832765  -0.180337  -1.951426
H    7.349655  -2.439958  -0.382235
H    6.121447  -4.332651  -4.164843
H    2.970952  -3.342491  -3.690163
H    7.155581  -0.759859  -6.137490
H    6.160923   3.199250  -5.113599
H    3.000639   2.393281  -4.416422
H    7.366039   2.300250  -0.976100

