%chk=mol_2580.chk
# wB97XD/Def2SVP opt pop=full gfinput

C 5 H 6 O 2

1 2
C    1.802950   0.092011  -0.165238
C    4.645570  -0.051911   0.214937
O    5.249281  -2.278065   1.624031
C    6.452621  -1.612182   3.797480
O    7.207812  -3.054289   5.421360
C    6.709529   1.137162   3.884049
C    5.647276   2.030643   1.789004
H    1.142566  -1.547194  -1.243704
H    1.262413   1.810395  -1.182232
H    0.794554   0.050588   1.644062
H    5.620254  -0.138177  -1.608535
H    7.608774   2.137715   5.406223
H    5.538013   4.005633   1.284957

