%chk=mol_5342.chk
# wB97XD/Def2SVP opt pop=full gfinput

C 5 H 7 N 1 O 1

1 2
C    2.553700  -0.651162  -0.162894
O    5.155116   0.005064  -0.299352
C    5.530340   2.646051   0.049719
C    8.289114   3.278013  -0.076591
C   10.175476   1.618891  -0.433862
C   12.749887   2.374422  -0.531618
N   14.848032   3.002076  -0.609607
H    2.380053  -2.686775  -0.469918
H    1.479126   0.332271  -1.630777
H    1.790950  -0.197401   1.704684
H    4.789454   3.217580   1.896888
H    4.528936   3.690578  -1.431770
H    8.733482   5.274490   0.148117
H    9.791068  -0.382405  -0.662765

