%chk=mol_5632.chk
# wB97XD/Def2SVP opt freq pop=full gfinput

C 4 H 2 N 2 O 1

1 2
N    0.93224967   0.10645996   0.00028000
C    2.09428906   0.07602997   0.00049000
C    3.51992869  -0.01458999   0.00075000
N    4.25486851   1.10313952   0.00075000
O    5.57365799   0.67066973   0.00103000
C    5.60176802  -0.68648970   0.00120000
C    4.32039833  -1.17390954   0.00103000
H    6.58556747  -1.13318956   0.00142000
H    4.01145840  -2.20825911   0.00110000

