%chk=mol_6141.chk
# wB97XD/Def2SVP opt freq pop=full gfinput

C 4 H 8 N 2 O 1

1 2
O    2.39863896  -0.35488984  -1.49641943
C    2.38258910   0.09049996  -0.14405994
C    3.29189873   1.29427946  -0.00384000
C    3.47061872   1.74337935   1.43814945
N    3.42368865   3.19391870   1.29846954
N    2.71123910   3.57438874   0.21048993
C    2.65034914   2.53129911  -0.55232978
H    1.83255935  -1.14539957  -1.54787946
H    2.73521900  -0.73325968   0.48509982
H    1.34712946   0.32561988   0.12485995
H    4.24398804   1.15366948  -0.52810979
H    4.41885853   1.40406942   1.86419928
H    2.65049887   1.40051949   2.07921910
H    3.13382888   3.67849851   2.14887929
H    2.19004917   2.53563905  -1.55102944

