%chk=mol_5483.chk
# wB97XD/Def2SVP opt pop=full gfinput

C 4 H 7 N 1 O 2

1 2
N    1.622557  -0.099551  -0.648573
C    4.253943   0.008579   0.239806
C    6.271888  -1.583005  -0.993939
O    5.736887  -2.714988  -3.420367
C    5.415313  -0.691148  -5.202000
O    5.747337   1.716344  -3.987700
C    6.278407   1.229097  -1.353535
H    0.679186   1.516808  -0.196966
H    0.678998  -1.559761   0.178900
H    4.435641   0.267680   2.270903
H    7.715261  -2.423253   0.185288
H    6.831473  -0.885280  -6.695375
H    3.520012  -0.790888  -6.019080
H    7.725767   2.332961  -0.423601

