%chk=mol_6034.chk
# wB97XD/Def2SVP opt pop=full gfinput

C 4 H 7 N 1 O 2

1 2
O    1.726265  -0.040119   0.685290
C    4.385941   0.044957   0.081882
C    5.997178   1.976691   1.556057
N    7.816267  -0.049794   1.895943
C    6.062166  -2.042718   1.249052
C    9.882795  -0.101365   3.427737
O   10.916306   1.747619   4.349696
H    1.041201  -1.393314  -0.352982
H    4.642944   0.216770  -1.970285
H    5.185314   2.652117   3.333723
H    6.713781   3.559299   0.439626
H    6.818094  -3.414641  -0.094959
H    5.273281  -3.005118   2.899539
H   10.569012  -2.039808   3.763900

