%chk=mol_4456.chk
# wB97XD/Def2SVP opt freq pop=full gfinput

C 5 H 7 N 1 O 1

1 2
C    1.12001967   0.17509994   0.04163998
C    2.60313916  -0.15191995  -0.07618997
C    2.88825893  -0.86161965  -1.33373952
N    3.08299875  -1.42355955  -2.33064914
C    3.42994857   1.09874964  -0.15265994
C    3.82382846   1.84147930   1.10165966
O    4.74395847   0.98735958   0.41012985
H    0.91625965   0.72687978   0.96567965
H    0.51611984  -0.73899972   0.05109998
H    0.77445972   0.79400969  -0.79489970
H    2.90593886  -0.77011973   0.77717972
H    3.30331874   1.67729938  -1.06087959
H    3.45136881   1.50197935   2.06048918
H    3.99250865   2.90961885   1.03649962

