%chk=mol_6595.chk
# wB97XD/Def2SVP opt pop=full gfinput

C 5 H 7 N 1 S 1

1 2
C    5.557987  -2.235187   0.905292
N    4.511589   0.151273   0.071885
C    5.867222   2.323456   0.015269
C    4.745915   4.645344  -0.342759
S    6.894571   7.064080  -0.334047
C    9.347284   5.007188   0.130278
C    8.535080   2.536693   0.279358
H    4.126047  -3.716373   0.732193
H    6.137320  -2.135580   2.888409
H    7.176481  -2.792977  -0.255699
H    2.590701   0.231321   0.127745
H    2.764934   5.058003  -0.610608
H   11.261823   5.707389   0.268303
H    9.821700   0.974740   0.561438

