%chk=mol_3726.chk
# wB97XD/Def2SVP opt freq pop=full gfinput

C 6 H 10 O 1

1 2
O    2.80085874  -0.46942982  -0.91927963
C    2.86729884  -0.21704993   0.48469982
C    3.43965864   1.18991959   0.76215971
C    3.19318867   1.56260943   2.20848918
C    2.48536897   2.62920904   2.60448909
C    4.90312815   1.25594962   0.35763985
C    5.96025753   1.61142945   1.10096967
H    2.46575904  -1.37606943  -1.02583957
H    3.48393869  -0.99648964   0.94761962
H    1.84865928  -0.30343989   0.87901968
H    2.91357899   1.90012932   0.10863996
H    3.62368870   0.90966964   2.96542883
H    2.03841925   3.31399870   1.88983929
H    2.34569907   2.84378886   3.65933871
H    5.08793783   0.98891968  -0.68366975
H    5.87139750   1.90852928   2.14032936
H    6.95692730   1.61993945   0.66971970

