%chk=mol_2965.chk
# wB97XD/Def2SVP opt pop=full gfinput

C 7 H 10

1 2
C    1.546401  -0.347048  -0.192714
C    4.421373  -0.144167  -0.006860
C    5.683257  -1.583912  -2.169292
C    5.220671   2.591476  -0.045788
C    6.464186   3.722023   1.850193
C    7.171340   6.307944   1.712205
C    7.771914   8.491088   1.603149
H    0.630356   0.647723   1.375362
H    0.947093  -2.326952  -0.117995
H    0.837772   0.464476  -1.961536
H    5.010401  -1.024156   1.776569
H    5.135652  -0.820557  -4.015063
H    5.149296  -3.583355  -2.125753
H    7.746214  -1.479769  -2.024596
H    4.740189   3.674100  -1.729477
H    6.965663   2.685849   3.548830
H    8.304118  10.430117   1.503768

