%chk=mol_0447.chk
# wB97XD/Def2SVP opt freq pop=full gfinput

C 4 H 8 N 2

1 2
C    1.11326969   0.07118998   0.42261985
C    2.31016922   0.08621997  -0.50433981
N    2.96217895  -1.01883960  -0.69529974
N    2.60213923   1.31081951  -1.08868957
C    3.13377881   1.28371954  -2.46074915
C    4.02395821   1.61813939  -1.31392956
H    0.71829975   1.07998955   0.56902975
H    1.40811944  -0.34069988   1.39203954
H    0.33215988  -0.55983979  -0.01085000
H    2.53907895  -1.77765930  -0.15031995
H    2.74910903   2.08450913  -3.07494879
H    3.20465875   0.30459988  -2.91489887
H    4.72420835   0.87562966  -0.95654964
H    4.26279831   2.65405917  -1.12402952

