%chk=mol_3135.chk
# wB97XD/Def2SVP opt freq pop=full gfinput

C 5 H 10 O 2

1 2
C    0.92689967  -0.46191981   0.19071993
C    2.31386900  -0.31405988  -0.42616984
C    2.51582909  -1.35050941  -1.53901947
O    3.84014845  -1.25020957  -2.06689930
O    2.43693924   0.97890961  -1.04347956
C    2.85560894   2.04324913  -0.30122986
C    3.20071888   2.10201931   0.99033964
H    0.76195973   0.28671989   0.97090966
H    0.79539967  -1.45436954   0.63154978
H    0.14706995  -0.30721986  -0.56259978
H    3.10372877  -0.46730983   0.31790990
H    1.82025933  -1.18558955  -2.36880922
H    2.38184905  -2.36862898  -1.16187966
H    3.97941852  -0.30204988  -2.25366926
H    2.88324904   2.92603898  -0.93276966
H    3.18416858   1.24750948   1.65382946
H    3.51793861   3.04680896   1.41986954

