%chk=mol_3892.chk
# wB97XD/Def2SVP opt freq pop=full gfinput

C 5 H 11 N 1 O 1

1 2
C    1.05581963   0.02942999  -0.08510997
C    2.54776907   0.03660998  -0.09814996
C    3.29853892  -0.62630981  -1.21838963
C    3.34179878   0.88209969  -1.07517958
N    2.60451913   1.68266940  -2.07798910
C    4.63161802   1.51105940  -0.56829977
O    5.43592787   1.88493919  -1.68560946
H    0.67961973   0.92027968   0.42697984
H    0.69299972  -0.85043967   0.45554984
H    0.62528974   0.00240000  -1.09104955
H    2.94141889  -0.07114998   0.90731961
H    2.72761893  -1.06223953  -2.03062916
H    4.18046856  -1.20183957  -0.95841962
H    2.35457921   1.11870968  -2.88812876
H    3.22361875   2.41463900  -2.43837929
H    5.20860815   0.82723969   0.06274997
H    4.41080856   2.41300893   0.01116000
H    5.52909756   1.08499956  -2.23029923

