%chk=mol_5563.chk
# wB97XD/Def2SVP opt freq pop=full gfinput

C 5 H 7 N 1 O 1

1 2
N    1.03836966  -0.11870995  -0.18312994
C    2.50871897  -0.02758999  -0.06568997
C    3.34812880  -0.71855974  -1.11186957
O    2.59351897  -1.35196948  -2.16615915
C    3.29111886   0.78802973  -1.06824958
C    4.44561815   1.51068950  -0.61470979
C    5.41222811   2.11774921  -0.24204992
H    0.60653979   0.69287974   0.26228991
H    0.70064974  -0.92762965   0.34191987
H    2.88486910  -0.05692998   0.95484960
H    4.26043844  -1.20792961  -0.78856969
H    1.64857948  -1.12723958  -2.04753923
H    2.72976899   1.27202952  -1.86191928
H    6.27139759   2.65635896   0.08209997

