%chk=mol_3932.chk
# wB97XD/Def2SVP opt pop=full gfinput

C 4 H 6 N 2 O 1

1 2
C    1.869317  -0.075419   0.011263
C    4.634591   0.228411  -0.000794
C    6.240121   2.265404  -0.056408
C    8.673106   1.186767  -0.072849
N   10.808383   2.552056  -0.147229
N    8.568434  -1.328893  -0.004970
O    6.022916  -1.934002   0.036661
H    0.921676   1.761981   0.031653
H    1.260561  -1.132059   1.680515
H    1.247559  -1.100217  -1.673409
H    5.724718   4.236709  -0.101214
H   10.833932   4.421695   0.246156
H   12.465522   1.641454   0.166012

