%chk=mol_5975.chk
# wB97XD/Def2SVP opt freq pop=full gfinput

C 5 H 9 N 1 O 1

1 2
O    1.32876945   0.15925995   0.83920968
C    2.38849902   0.06043998   0.22688991
C    3.06254888  -1.27430964  -0.01272000
C    3.98867846  -1.28303945  -1.22080958
C    4.91763783  -0.07735997  -1.18392956
C    4.08479834   1.19305956  -1.18467951
N    3.06756902   1.18321955  -0.15926994
H    2.28661919  -2.03591919  -0.14613995
H    3.62654853  -1.52137947   0.89430970
H    4.57361794  -2.20916939  -1.23367953
H    3.39493871  -1.26148951  -2.14296913
H    5.54027796  -0.11835995  -0.28171989
H    5.59029770  -0.08686996  -2.04831910
H    4.71518803   2.07281923  -1.02292967
H    3.57287860   1.31429958  -2.14588904
H    2.55304909   2.03825927   0.01802999

