%chk=mol_4406.chk
# wB97XD/Def2SVP opt freq pop=full gfinput

C 5 H 7 N 1 O 1

1 2
C    0.89634967   0.29632989   0.18425994
C    2.37218904   0.04197999   0.05821998
C    2.93857908  -1.17320955  -0.08955996
C    2.26947927  -2.50673890  -0.11811996
O    2.52372885  -3.10237885  -1.37869954
C    3.22563887   1.19242966   0.08618996
N    3.91186857   2.12736940   0.10828996
H    0.59508979   1.12675965  -0.46449983
H    0.64556980   0.56150979   1.21667957
H    0.28490990  -0.56155980  -0.10487996
H    4.02501869  -1.23505962  -0.18097992
H    1.19031966  -2.47202897   0.04185998
H    2.69828892  -3.15040874   0.65612972
H    2.16182923  -2.50936913  -2.05885911

