%chk=mol_4759.chk
# wB97XD/Def2SVP opt pop=full gfinput

C 4 H 7 N 1 O 2

1 2
C    1.805614  -0.741056   0.035054
C    4.436472   0.413378   0.171171
N    4.350546   3.163912   0.143374
C    4.308046   4.414495  -2.144121
O    4.332027   3.428927  -4.237465
C    4.072095   4.452705   2.393641
O    3.877945   3.502834   4.493258
H    1.925763  -2.805185   0.058506
H    0.829703  -0.169452  -1.697163
H    0.645077  -0.142032   1.639489
H    5.563845  -0.248896  -1.434926
H    5.379294  -0.222156   1.902387
H    4.221440   6.487127  -1.942128
H    4.009413   6.522049   2.149015

