%chk=mol_5937.chk
# wB97XD/Def2SVP opt freq pop=full gfinput

C 6 H 11 N 1

1 2
C    0.99493963   0.14408995  -0.20561992
C    2.46758914  -0.00675000   0.18192993
C    3.06974888  -1.34289956  -0.32560986
C    3.91123843  -1.22477949  -1.55772948
C    4.15225840  -0.04354998  -2.13972926
C    3.61560869   1.24887955  -1.59429944
N    3.24582887   1.19252956  -0.18520993
H    0.57447982   1.06379962   0.22069991
H    0.41108987  -0.68994975   0.20160992
H    0.84602970   0.16547994  -1.28824949
H    2.47574925  -0.05303998   1.27688956
H    2.27535915  -2.07091928  -0.51104981
H    3.70940852  -1.76164937   0.46660984
H    4.32641840  -2.13780928  -1.98443925
H    4.74753809   0.00617000  -3.04073882
H    4.39507818   2.01513934  -1.70470941
H    2.77187896   1.57797945  -2.21222901
H    4.10890865   1.18295956   0.35595986

