%chk=mol_5955.chk
# wB97XD/Def2SVP opt freq pop=full gfinput

C 5 H 7 N 1 O 1

1 2
O    1.54668939   0.16860995   1.30541956
C    2.38850927   0.05827998   0.43078983
C    2.99473882  -1.24152946  -0.09570996
C    3.96928859  -0.82341969  -1.17295957
C    5.19655800  -0.00713000  -0.86615968
C    3.91651845   0.67860973  -1.24080956
N    2.97113872   1.10546958  -0.26741990
H    2.19742918  -1.86243927  -0.51339978
H    3.50515890  -1.76691937   0.71568972
H    3.91614866  -1.39936948  -2.08443928
H    5.53761816   0.05707998   0.16090994
H    6.00025797  -0.00870000  -1.59406948
H    3.83234859   1.14786959  -2.21414924
H    2.71841884   2.06446934  -0.07493997

