%chk=mol_6953.chk
# wB97XD/Def2SVP opt freq pop=full gfinput

C 7 H 10

1 2
C    0.88995969   0.00360000   0.24580990
C    2.34926915   0.01401999  -0.01413999
C    3.15182900   1.08325958  -0.16278994
C    4.55652809   0.73632973  -0.42077985
C    5.36241770  -0.00131000   0.61070979
C    4.57771826  -0.78176969  -0.41223985
C    3.16035867  -1.25474954  -0.14853995
H    0.49766982  -1.01930964   0.23295991
H    0.35461986   0.57375979  -0.52081978
H    0.66862977   0.43421984   1.22768950
H    2.81642890   2.11164927  -0.10580996
H    5.06018782   1.25354958  -1.22745955
H    6.44258738   0.01631999   0.51311982
H    5.01902819  -0.00130000   1.63975942
H    5.09432793  -1.30973959  -1.20002961
H    3.11722875  -1.85279930   0.76688969
H    2.79743910  -1.85276926  -0.99047965

