%chk=mol_3064.chk
# wB97XD/Def2SVP opt pop=full gfinput

C 6 H 12 O 1

1 2
C    0.540707  -0.732231   0.963175
C    3.142860  -0.669303  -0.273443
C    3.747176  -3.228597  -1.450894
O    3.242694   1.153640  -2.264100
C    3.238480   3.702881  -1.402536
C    3.800069   5.342407  -3.634851
C    5.662451   7.052666  -3.741129
H    0.163726   1.024383   1.990127
H    0.387394  -2.293088   2.312987
H   -0.951950  -0.928857  -0.458693
H    4.595360  -0.239372   1.139902
H    2.390485  -3.699366  -2.944212
H    3.725368  -4.736958  -0.035206
H    5.617495  -3.190084  -2.339746
H    4.650125   3.960923   0.091217
H    1.369012   4.192622  -0.666280
H    2.585788   5.082154  -5.271883
H    6.932177   7.368930  -2.160637
H    5.962748   8.167699  -5.437253

