%chk=mol_3866.chk
# wB97XD/Def2SVP opt freq pop=full gfinput

C 4 H 4 N 2 O 1

1 2
C    2.07694912   0.13483994   0.55427980
O    1.52400947   0.59473979  -0.71245974
C    2.53239918   1.47377944  -0.83671969
C    2.59432888   2.81588888  -1.01825964
N    3.35263872   3.23561883   0.05936998
N    3.53760862   2.26298928   1.00225961
C    3.11532903   1.17000961   0.36783987
H    2.42463899  -0.90007967   0.48281983
H    1.41200948   0.26242989   1.41236949
H    2.09917927   3.51943874  -1.67201936
H    3.62671852   4.18379831   0.29552990

