%chk=mol_6945.chk
# wB97XD/Def2SVP opt freq pop=full gfinput

C 6 H 13 N 1

1 2
C    2.29916906  -0.47834983  -1.55248940
C    2.44398904  -0.01667999  -0.11167996
C    3.25095868   1.27100945  -0.04235999
C    2.56358886   2.57591915  -0.50315982
N    3.21079874   3.27554870   0.63167977
C    3.30470896   1.97084928   1.34176946
C    4.58727837   1.82592928   2.13755918
H    1.73489928  -1.41485953  -1.59733939
H    3.27908874  -0.64656979  -2.01088929
H    1.77111936   0.26777989  -2.15480924
H    2.94844890  -0.79877973   0.46730983
H    1.44933939   0.12052996   0.32824987
H    4.24796867   1.14559960  -0.49106982
H    1.46892941   2.57386899  -0.44012985
H    2.85623908   2.94019890  -1.49217951
H    4.11834860   3.67290854   0.38620988
H    2.42383909   1.77788937   1.96991920
H    5.47442818   2.04027939   1.53195953
H    4.68345833   0.80458969   2.51983905
H    4.59036827   2.50438905   2.99700880

