%chk=mol_5060.chk
# wB97XD/Def2SVP opt freq pop=full gfinput

C 6 H 11 N 1

1 2
C    1.46740949  -0.22759992  -0.42519984
C    2.84048891   0.07146998   0.09968996
C    3.64076877  -1.05257964   0.70169973
C    4.05279827  -0.46021983  -0.61832976
C    5.06211805   0.64348978  -0.67144978
C    4.26159859   1.90658927  -0.33060989
N    3.11292887   1.47752953   0.49237981
H    1.11077964   0.58200973  -1.06957960
H    0.76390976  -0.33859989   0.40602985
H    1.44861948  -1.15217960  -1.01111960
H    3.21462893  -2.04968929   0.69447970
H    4.24605846  -0.85114968   1.57742941
H    3.93084836  -1.01884961  -1.53352940
H    5.85163784   0.47115982   0.06875998
H    5.52314758   0.72356975  -1.66072941
H    4.87232828   2.65773916   0.17906994
H    3.87487864   2.35686922  -1.25236952
H    3.38373876   1.50539947   1.47535944

