%chk=mol_5907.chk
# wB97XD/Def2SVP opt pop=full gfinput

C 4 H 6 N 2 O 1

1 2
N    1.993491   0.075835  -0.106732
N    4.551386  -0.012510  -0.024680
C    5.588109   2.191950  -0.068654
C    8.296673   2.079757   0.000000
C   10.545749   2.079757   0.000000
C   13.274513   2.079757   0.000000
O   14.189613   4.600085  -0.122681
H    1.308749  -1.717289  -0.344119
H    1.268139   0.656302   1.587483
H    4.614484   4.027063  -0.170302
H   14.034203   1.036912  -1.614695
H   14.023658   1.214621   1.722353
H   13.437351   5.362703  -1.614752

