%chk=mol_6758.chk
# wB97XD/Def2SVP opt freq pop=full gfinput

C 6 H 11 N 1

1 2
C    0.84324968   0.10025996   0.17553994
C    2.35479927   0.02439999  -0.02342999
C    3.14988875   0.97728962   0.92017961
N    4.10565853  -0.11790996   1.19563949
C    3.07600904  -1.09695959   0.78132969
C    2.74728894   0.13772994  -1.47292948
C    2.51269913  -0.85685968  -2.33835912
H    0.57595980   0.05978998   1.23777962
H    0.33252987  -0.73444974  -0.31761989
H    0.43850985   1.03499961  -0.22903992
H    2.60654902   1.30272949   1.81633937
H    3.59862852   1.86600935   0.46412984
H    4.90651846  -0.10818996   0.56234980
H    3.46671867  -1.94773936   0.21404991
H    2.50244904  -1.49687934   1.62703943
H    3.21909881   1.05619967  -1.81153941
H    2.03648925  -1.78492928  -2.03808928
H    2.79539895  -0.75819975  -3.38218880

