%chk=mol_5617.chk
# wB97XD/Def2SVP opt freq pop=full gfinput

C 5 H 9 N 1 O 1

1 2
N    2.37452912  -0.37418985   1.46068943
C    2.58085895   0.00474000   0.06587997
C    3.09967875   1.40341938  -0.03959998
C    4.26817846   1.80384934  -0.53766978
C    4.37518835   3.27071881  -0.39605984
C    2.95935893   3.63249850   0.03748999
O    2.28401899   2.42637897   0.44729984
H    1.80027938  -1.21303952   1.49294949
H    1.82356930   0.36431986   1.90055931
H    1.63052940  -0.06381997  -0.47529981
H    3.27339888  -0.70542979  -0.39828986
H    5.03744793   1.15917957  -0.93452966
H    5.10986805   3.53312874   0.37179986
H    4.64805841   3.77075863  -1.32935953
H    2.39254904   4.07418871  -0.79094970
H    2.95874882   4.34474802   0.86914968

