%chk=mol_1584.chk
# wB97XD/Def2SVP opt freq pop=full gfinput

C 5 H 10 N 2

1 2
C    1.73942935   0.85964966  -1.70671928
C    2.68888903   0.86838967  -0.54967982
N    3.96519852   0.90727961  -0.74681973
N    4.64648819   0.90844965   0.41668984
C    5.91005802   0.20613992   0.16756994
C    5.85633755   1.70390940   0.19868992
C    6.43416739   2.45464897   1.34699953
H    1.13026953  -0.04628998  -1.65717936
H    2.27865911   0.88894963  -2.65663886
H    1.08115959   1.72875929  -1.63036942
H    2.23881912   0.84026968   0.46071982
H    6.04046774  -0.28981990  -0.78679973
H    6.31841755  -0.32269990   1.01846957
H    5.95287800   2.24565911  -0.73531973
H    6.32307768   1.91722929   2.29527903
H    5.94181776   3.42729878   1.44837940
H    7.50177717   2.63098884   1.18092966

