%chk=mol_5446.chk
# wB97XD/Def2SVP opt freq pop=full gfinput

C 4 H 6 N 2 O 1

1 2
C    1.73288941  -0.71796978  -0.22952992
O    3.13775897  -0.51045978  -0.13131995
N    3.38657880   0.87032968  -0.17617993
C    4.65808821   1.10622954  -0.09608996
C    5.76315784   0.10671996   0.03183999
C    4.97534800   2.51420903  -0.12804995
N    5.27185822   3.63819861  -0.15017995
H    1.53926945  -1.79328942  -0.19668993
H    1.35669959  -0.31991988  -1.17722952
H    1.22000957  -0.24054992   0.61126977
H    5.71036816  -0.60733980  -0.79374969
H    5.65689802  -0.43153983   0.97727960
H    6.73965740   0.59782976   0.01144000

