%chk=mol_4179.chk
# wB97XD/Def2SVP opt freq pop=full gfinput

C 5 H 7 N 1 O 1

1 2
C    1.01003969  -0.04685998  -0.06127997
C    2.49166894   0.07917997  -0.03075999
O    3.14721870  -0.37319985  -1.22158957
C    3.21479869   1.03454959  -0.95079964
C    4.57199812   1.54400945  -0.58922976
C    5.16088772   1.99949932  -1.85315931
N    5.63221788   2.38808894  -2.83919907
H    0.56049979   0.63687974   0.66515976
H    0.71289974  -1.06697953   0.20060992
H    0.59754974   0.18547992  -1.04858959
H    2.92525887  -0.18948993   0.92301971
H    2.61944914   1.71397936  -1.54974949
H    5.19128847   0.76838970  -0.12675995
H    4.48201847   2.37579894   0.11632995

