%chk=mol_6031.chk
# wB97XD/Def2SVP opt freq pop=full gfinput

C 4 H 8 N 2 O 1

1 2
O    1.02336967   0.17603993   0.04597998
C    2.46427894   0.09863997   0.11485996
C    3.14696884   0.91222966   1.22032952
N    3.78383851  -0.28888988   1.69154942
C    3.07016897  -1.14132965   0.78103971
C    5.15090799  -0.33166990   1.66103947
N    5.97181797   0.55613983   2.10431910
H    0.76508969  -0.47734982  -0.62679976
H    2.89642882   0.29848990  -0.87431967
H    2.47446918   1.32701945   1.97707927
H    3.82247853   1.69272935   0.85922968
H    3.69222856  -1.75704932   0.12452996
H    2.35667920  -1.77872932   1.31243944
H    5.56128836  -1.26394951   1.23452961
H    5.43428802   1.32318962   2.51902914

