%chk=mol_0709.chk
# wB97XD/Def2SVP opt pop=full gfinput

C 5 H 10 O 1

1 2
C    1.916371   0.000435   0.209268
C    4.745102   0.545186   0.168904
C    5.539845   3.299386   0.112325
C    3.936318   5.271353   0.146340
C    8.354857   3.723025  -0.031653
O    9.509083   2.796360   2.206010
H    1.590809  -2.043077   0.243850
H    0.979029   0.758328  -1.473117
H    1.016692   0.807253   1.889537
H    5.551316  -0.399356  -1.491693
H    5.586182  -0.351640   1.837834
H    1.901480   5.036007   0.231624
H    4.617262   7.207510   0.083753
H    8.839458   5.725965  -0.219851
H    9.161846   2.727366  -1.655684
H    8.545153   3.481386   3.612117

