%chk=mol_6800.chk
# wB97XD/Def2SVP opt freq pop=full gfinput

C 5 H 8 N 2

1 2
C    0.98235959   0.04808998  -0.00996000
N    2.42296910  -0.00924000  -0.00178000
C    3.25130868   1.07710958   0.00896000
N    4.51479816   0.72045976   0.01464999
C    4.50112867  -0.64877975   0.00713000
C    3.20923877  -1.13595963  -0.00330000
C    2.71287894  -2.53156924  -0.01449999
H    0.65580976   1.09122968  -0.00405000
H    0.60975975  -0.45905983   0.88352966
H    0.62061977  -0.44578981  -0.91522962
H    2.88841891   2.09669924   0.01218000
H    5.42265797  -1.21669960   0.00946000
H    1.62102938  -2.59134889  -0.00810000
H    3.08205891  -3.07049870   0.86418968
H    3.07113886  -3.05217886  -0.90861964

