%chk=mol_5290.chk
# wB97XD/Def2SVP opt freq pop=full gfinput

C 5 H 11 N 1 O 1

1 2
C    0.46761981   0.73791975   0.44413984
O    1.65392935   0.57926983  -0.32296988
C    2.82082891   1.23182952   0.24105991
C    3.53770876   0.44302982   1.31146955
N    3.99618864  -0.82457972   0.75146973
C    3.64583850   1.98785925  -0.77358973
C    2.84054899   2.74040914   0.24522990
H    0.62203979   0.41839984   1.47813952
H   -0.31186989   0.11266996   0.00082000
H    0.13327995   1.77852941   0.41814983
H    2.85922885   0.25420991   2.14926910
H    4.39864826   0.99518967   1.70338929
H    3.21556878  -1.24051952   0.24068992
H    4.22609854  -1.46511948   1.50771940
H    3.30202889   1.98605919  -1.80139935
H    4.72435856   1.97014928  -0.66951972
H    3.37753868   3.24778867   1.03774965
H    1.96818924   3.27557874  -0.10966995

