%chk=mol_3033.chk
# wB97XD/Def2SVP opt freq pop=full gfinput

C 6 H 12 O 1

1 2
C    2.98329878  -0.85455966  -1.22731960
C    2.50648928  -0.07072997  -0.01542999
C    3.08754873   1.34389949   0.05458998
O    2.46731901   2.03178930   1.13966954
C    4.57332850   1.35267949   0.28251988
C    5.52254772   1.68531930  -0.84231967
C    5.32554817   2.66146898   0.28147990
H    2.49704885  -1.83506930  -1.25573957
H    4.06460857  -1.01972961  -1.19711959
H    2.73909903  -0.32876986  -2.15574932
H    2.75282884  -0.62552977   0.89864963
H    1.41124952  -0.00690000  -0.03726999
H    2.82896900   1.89365935  -0.85771972
H    2.78911877   1.62554944   1.96140921
H    4.88854837   0.61338979   1.01038969
H    5.11596775   1.94696927  -1.81321931
H    6.46395779   1.14799964  -0.88903970
H    6.12921762   2.78437901   0.99842966
H    4.77092791   3.57128882   0.07938997

