%chk=mol_5511.chk
# wB97XD/Def2SVP opt pop=full gfinput

C 5 H 11 N 1 O 1

1 2
N    1.890898   0.047281   0.326771
C    4.600652   0.085812  -0.134964
C    5.849628   2.017472   1.653340
C    7.861695  -0.035073   2.270015
C   10.282284   0.010998   0.716792
O   11.849188   2.029396   1.553468
C    5.871039  -2.020476   1.430957
H    0.988629  -1.461930  -0.459676
H    0.968749   1.610633  -0.318816
H    5.181931   0.196475  -2.115643
H    4.734558   2.567647   3.313559
H    6.548071   3.737028   0.742114
H    8.306140  -0.159361   4.291965
H    9.923727   0.249614  -1.306727
H   11.337412  -1.748601   0.977064
H   10.935883   3.598946   1.276699
H    6.592329  -3.621414   0.338507
H    4.759237  -2.762062   3.016815

