%chk=mol_0932.chk
# wB97XD/Def2SVP opt pop=full gfinput

C 4 H 7 N 1 O 1

1 2
C    0.805968   2.733489   0.382027
C    2.528831   0.539025  -0.243397
O    1.702379  -1.577090   1.210918
N   -0.632548  -2.538224   0.358764
C   -2.317390  -0.827228  -0.127008
C   -1.937536   1.984023   0.022337
H    1.275697   4.392442  -0.759254
H    1.083626   3.264502   2.365446
H    4.480352   0.969184   0.299200
H    2.514640   0.065082  -2.261360
H   -4.212880  -1.475196  -0.708836
H   -2.657560   2.780732  -1.748148
H   -3.125078   2.733092   1.540713

