%chk=mol_3693.chk
# wB97XD/Def2SVP opt freq pop=full gfinput

C 6 H 8 O 1

1 2
O    2.87692881  -0.91852963  -0.52583981
C    2.20689917   0.19513993   0.04004999
C    1.82904923  -0.10033996   1.42419958
C    1.51326942  -0.35031989   2.55664921
C    3.16417885   1.34361959   0.13767995
C    3.39617872   2.24119925  -1.05587959
C    2.67449880   2.77247882   0.15081994
H    3.24316883  -0.61358976  -1.37128949
H    1.32925951   0.43026984  -0.57106978
H    1.23832953  -0.57996976   3.55976868
H    4.03484869   1.10255957   0.74143970
H    2.81632900   2.07980919  -1.95752931
H    4.40646839   2.59208894  -1.23621953
H    3.19619894   3.47674870   0.78950971
H    1.60932946   2.95789886   0.06887998

