%chk=mol_4896.chk
# wB97XD/Def2SVP opt freq pop=full gfinput

C 4 H 10 N 2 O 1

1 2
C    3.07204890  -0.97844958  -1.44162941
C    2.52311897  -0.31334987  -0.18538992
O    2.65250897  -1.20985949   0.91674966
C    3.19236875   1.03801954   0.12453996
N    4.62897825   0.91081965   0.31055990
C    5.26851797   0.56510979   1.45630944
N    4.75454807   0.19295992   2.56919909
H    2.97882891  -0.32119986  -2.31182933
H    2.52607918  -1.90606940  -1.64706933
H    4.12347841  -1.25884950  -1.32148945
H    1.45002937  -0.13991994  -0.32433990
H    3.60824871  -1.32229948   1.08894956
H    2.74409890   1.47917950   1.02231956
H    3.00757885   1.73543930  -0.70129973
H    5.20146799   1.16708958  -0.48747981
H    6.36669779   0.60267979   1.35499942
H    3.73053861   0.20876993   2.52047896

