%chk=mol_3066.chk
# wB97XD/Def2SVP opt freq pop=full gfinput

C 6 H 10 O 1

1 2
C    0.92297959  -0.81716967   0.74005973
C    2.04412913  -0.89509964  -0.29029989
C    2.67617893  -2.28347898  -0.27746990
O    1.46036947  -0.61705977  -1.56435943
C    2.40846920  -0.21832992  -2.55151892
C    1.69993925   0.07397997  -3.80157852
C    1.11814964   0.30838990  -4.82567835
H    0.46224985   0.17662993   0.72646970
H    1.29487956  -1.01373959   1.75026929
H    0.12767994  -1.53542948   0.51163977
H    2.79518890  -0.13400994  -0.04594998
H    1.96395934  -3.04057884  -0.62348980
H    3.01910901  -2.55402923   0.72607976
H    3.53841853  -2.33058906  -0.94956964
H    3.13632870  -1.01666963  -2.72134900
H    2.94020867   0.67681974  -2.20759916
H    0.59164977   0.51201981  -5.73018789

