%chk=mol_5885.chk
# wB97XD/Def2SVP opt freq pop=full gfinput

C 4 H 7 N 1 O 2

1 2
N    1.28610945   1.96983922  -1.35665953
C    2.43678904   2.15246916  -0.66722977
O    2.60844898   3.07065868   0.11924995
O    3.33489871   1.18622959  -0.98282963
C    4.61947823   1.26236951  -0.33516988
C    5.70391798   0.42762983  -0.95933962
C    5.71770763   1.91934931  -1.12380958
H    1.20050955   1.20377958  -2.00530910
H    0.53486979   2.63116908  -1.23258948
H    4.63922834   1.36744952   0.74598974
H    5.45089769  -0.17681994  -1.82222927
H    6.44097757  -0.01763999  -0.30208987
H    6.45503759   2.49114895  -0.57287979
H    5.47043800   2.33094907  -2.09538913

