%chk=mol_3818.chk
# wB97XD/Def2SVP opt pop=full gfinput

C 5 H 7 N 1 O 1

1 2
C    3.415416  -0.428420   0.198478
C    1.668042  -2.473444   1.288321
C   -0.364812  -1.723978  -0.654847
C   -2.791031  -0.466914   0.292435
N   -2.666611   1.965051   0.501892
O   -0.180809   2.790596  -0.223120
C    1.170591   0.649234  -1.283653
H    4.920091  -1.173558  -1.012818
H    4.251184   0.842194   1.597480
H    2.375745  -4.407427   1.114012
H    1.126126  -2.139775   3.259022
H   -0.620378  -3.032274  -2.232692
H   -4.490121  -1.588201   0.707287
H    1.535270   0.945619  -3.298177

