%chk=mol_5147.chk
# wB97XD/Def2SVP opt pop=full gfinput

C 4 H 8 N 2 O 1

1 2
C    2.093476  -0.045958   0.609531
N    4.852269  -0.056408   0.694493
C    5.876179   2.338366  -0.328302
C    8.774849   2.488958  -0.001814
O    9.394263   1.838571   2.560201
C   10.071277   0.813017  -1.813721
N   11.027686  -0.511530  -3.280527
H    1.377384  -1.838401   1.351910
H    1.397358   0.166938  -1.327098
H    1.315778   1.469942   1.782692
H    5.478562  -1.535837  -0.386336
H    5.046438   3.900092   0.754624
H    5.345090   2.575564  -2.317390
H    9.398497   4.438437  -0.308536
H    8.127618   0.574496   3.040947

