%chk=mol_6519.chk
# wB97XD/Def2SVP opt freq pop=full gfinput

C 4 H 2 N 2 S 1

1 2
C    0.95087963   0.00867000  -0.00067000
C    2.15151906   0.02972999  -0.00054000
C    3.57788873   0.05131998   0.00003000
N    4.18116856   1.24075949   0.00191000
S    5.81979799   0.87601972   0.00246000
N    5.75156784  -0.80228972   0.00036000
C    4.44446850  -1.07949960  -0.00083000
H   -0.11395996   0.00141000  -0.00067000
H    4.14687872  -2.11934924  -0.00228000

