%chk=mol_3175.chk
# wB97XD/Def2SVP opt pop=full gfinput

C 6 H 6 O 1

1 2
C    5.746676  -2.568610   0.142901
C    4.466368  -0.028686   0.073832
O    2.149053   0.164198   0.045070
C    6.008951   2.318921   0.044050
C    8.537858   2.363178   0.000000
C    9.866336   4.664165   0.000000
C   10.990874   6.611925   0.000000
H    6.937770  -2.721999   1.823435
H    6.860594  -2.850595  -1.573783
H    4.310257  -4.053822   0.236518
H    4.906069   4.050382   0.064610
H    9.654573   0.644434  -0.025266
H   11.994017   8.357711  -0.000189

