%chk=mol_4739.chk
# wB97XD/Def2SVP opt freq pop=full gfinput

C 5 H 6 N 2

1 2
C    2.26380920   0.61488980  -0.77605969
C    2.44585896   0.02308999   0.63227975
C    3.24486876   1.24234951   0.87344962
N    3.20915890   2.26519918   1.67898941
C    3.30325866   3.34272885   0.81674969
C    3.24341893   2.93526888  -0.50707984
N    3.27111888   1.57656944  -0.43703982
H    1.29277945   1.06268954  -1.01801968
H    2.56364894  -0.03868998  -1.60197937
H    3.03588867  -0.89986968   0.63697976
H    1.56891942  -0.09926996   1.27049947
H    3.32714868   4.35683823   1.19523954
H    3.19393873   3.47595882  -1.44034946

