%chk=mol_6635.chk
# wB97XD/Def2SVP opt freq pop=full gfinput

C 6 H 13 N 1

1 2
C    0.97079962   0.00864000   0.03334999
C    2.48822904   0.03293999   0.03142999
C    3.08226871   1.12977958   0.90085965
C    4.49844837   0.62647980   1.10841954
N    4.31247854  -0.80938965   1.33507955
C    5.50412798  -1.58035934   1.00970960
C    3.12692881  -1.24343956   0.57959980
H    0.59741974  -0.81297970  -0.58758980
H    0.56954974   0.94570965  -0.36798984
H    0.57115978  -0.12353995   1.04516959
H    2.83585906   0.18195994  -0.99959964
H    2.55436897   1.20947945   1.85972929
H    3.05754876   2.10811925   0.41030985
H    5.09532833   0.82366967   0.20842993
H    4.98089790   1.11058962   1.96236920
H    5.34839773  -2.64004922   1.23930943
H    6.35473776  -1.24410951   1.61156940
H    5.77559757  -1.49405944  -0.04821998
H    3.36236882  -1.92860925  -0.24451990
H    2.45380902  -1.76972938   1.26551950

