%chk=mol_5171.chk
# wB97XD/Def2SVP opt freq pop=full gfinput

C 6 H 11 N 1

1 2
C    1.01706958  -0.06542998  -0.05046998
C    2.50726914   0.08343997  -0.01122000
C    3.42693853  -0.57893974  -1.06914961
N    4.50584841  -0.35078987  -0.00774000
C    3.38980889  -0.73638976   0.96636963
C    4.55423832   1.13281965   0.11084996
C    3.07238889   1.49129951   0.10474996
H    0.55676979   0.33854988   0.85706967
H    0.72644973  -1.11798966  -0.13001995
H    0.59068978   0.46303982  -0.90850967
H    3.57328868  -0.04218999  -2.01349926
H    3.23167896  -1.63409936  -1.29935956
H    3.18923879  -1.81375933   1.02447963
H    3.49950862  -0.35098988   1.98653924
H    5.04925823   1.43928945   1.03829956
H    5.08974791   1.57936943  -0.73401970
H    2.80387902   2.11756921  -0.75220972
H    2.76567912   1.98599935   1.03186953

