%chk=mol_3926.chk
# wB97XD/Def2SVP opt pop=full gfinput

C 5 H 9 N 1 O 1

1 2
C    2.010914   0.126479  -0.019124
C    4.812188  -0.047527  -0.098833
C    6.226289  -2.130515  -0.100250
C    8.927955  -1.419695  -0.106222
N   10.070218  -2.074541   2.320149
C    8.718176   1.435153  -0.625462
O    6.156255   2.216271  -0.100496
H    1.132022  -1.744916  -0.050059
H    1.312018   1.188146  -1.650109
H    1.400552   1.094983   1.702360
H    5.533042  -4.047189  -0.045599
H    9.974107  -2.354788  -1.626223
H    9.088600  -1.173123   3.715712
H   11.851418  -1.351343   2.399707
H    9.113791   1.849815  -2.618631
H   10.018402   2.563130   0.524248

