%chk=mol_5194.chk
# wB97XD/Def2SVP opt freq pop=full gfinput

C 4 H 8 N 2 O 1

1 2
C    2.01920915  -0.51412982   0.49893981
N    3.37059879  -0.07408997   0.29441988
C    4.26631880  -0.79527968  -0.45298985
O    4.05327845  -1.89234936  -0.94911963
C    5.59718800  -0.14469995  -0.61732978
C    5.86434746   0.73819971  -1.80321932
N    5.63757801   1.32772946  -0.48617983
H    1.59878945   0.03145999   1.34695959
H    1.99918926  -1.58853936   0.69923979
H    1.43794942  -0.30258986  -0.40349987
H    3.63363862   0.89017963   0.47764984
H    6.43014765  -0.69156969  -0.19140993
H    5.07442808   0.87218970  -2.53268909
H    6.87348747   0.78200972  -2.19460917
H    6.52385759   1.61463940  -0.06432997

