%chk=mol_5466.chk
# wB97XD/Def2SVP opt pop=full gfinput

C 4 H 8 N 2 O 1

1 2
C    2.497424  -0.337732  -1.020679
O    5.170404  -0.385145  -0.739998
N    6.020913   2.105004  -0.408408
C    8.448304   2.072746  -0.141597
N    9.895267   4.174254   0.213917
C   12.455751   4.346011   0.513004
C   13.792582   6.458933   0.848619
H    1.837626  -2.272320  -1.318046
H    1.967413   0.806308  -2.659771
H    1.612447   0.413264   0.690582
H    9.544005   0.295175  -0.185628
H    8.917296   5.821981   0.254225
H   13.420911   2.530854   0.458844
H   12.903409   8.305913   0.913021
H   15.830104   6.380509   1.067525

