%chk=mol_4421.chk
# wB97XD/Def2SVP opt freq pop=full gfinput

C 5 H 9 N 1 O 1

1 2
C    2.80719900  -0.89728963  -1.03456962
C    2.47037911   0.00655000   0.14624994
C    3.02738905   1.43281937   0.00000000
C    2.51905918   2.31214929   1.15336967
O    2.79864883   3.68923879   0.91933966
C    4.47138834   1.43281937   0.00000000
N    5.62239790   1.43281937   0.00000000
H    2.32421923  -1.87216926  -0.90949965
H    3.88427854  -1.06863952  -1.11456966
H    2.45388889  -0.46242985  -1.97402918
H    2.84443903  -0.45906982   1.06849968
H    1.37714946   0.05209998   0.23658991
H    2.67279887   1.86320925  -0.94519967
H    2.95293880   2.02500916   2.11806917
H    1.43098950   2.22527909   1.24008954
H    3.74431872   3.84471846   1.10143960

