%chk=mol_3714.chk
# wB97XD/Def2SVP opt pop=full gfinput

C 6 H 4 O 1

1 2
O    2.290934  -0.564858   1.367444
C    4.099648  -0.068521  -0.000397
C    5.564223   2.364444   0.155997
C    8.292780   1.891087   0.065385
C   10.530593   1.516581  -0.003723
C   13.383362   1.041126  -0.086493
C   15.619663   0.669889  -0.146227
H    4.634705  -1.356313  -1.552108
H    5.053997   3.341452   1.906545
H    4.987497   3.547564  -1.440028
H   17.604612   0.341511  -0.194472

