%chk=mol_5505.chk
# wB97XD/Def2SVP opt freq pop=full gfinput

C 5 H 11 N 1 O 1

1 2
N    1.01041961   0.05002998  -0.06246998
C    2.46352911   0.02473999   0.03722999
C    3.00523877   1.12722957   0.93659967
C    4.43205833   0.66205978   1.19345951
C    4.31957865  -0.85135967   1.37382948
C    3.01247907  -1.26281953   0.68391973
O    3.23466873  -2.27571917  -0.29102990
H    0.70092976  -0.77941972  -0.57368976
H    0.71217978   0.85739970  -0.60727978
H    2.87462878   0.13052996  -0.97510964
H    2.45135903   1.18257964   1.88040924
H    2.97165895   2.11243916   0.46040982
H    5.05998802   0.88561964   0.32219985
H    4.87948799   1.15130961   2.06329918
H    5.20011806  -1.36937940   0.97944963
H    4.25149870  -1.08419955   2.44369912
H    2.31603909  -1.66691935   1.42852938
H    3.91035867  -1.95215929  -0.91075969

