%chk=mol_5244.chk
# wB97XD/Def2SVP opt pop=full gfinput

C 4 H 10 N 2 O 1

1 2
C    4.440554  -1.945549  -2.147976
N    6.946047  -1.419657  -1.126333
N    7.401528   1.037762  -0.559605
C    9.638340   1.579112   0.295742
C   11.791117  -0.223838   0.714090
O   10.321250   3.980519   0.913324
C    8.458735   5.893697   0.481427
H    4.304777  -3.939059  -2.678044
H    4.081563  -0.810522  -3.839451
H    2.973824  -1.540694  -0.746914
H    7.241638  -2.573354   0.395860
H   11.196628  -1.764343   1.955243
H   13.387444   0.738108   1.609272
H   12.416143  -0.985417  -1.101673
H    9.318164   7.723726   0.908788
H    6.842396   5.618572   1.741061
H    7.863339   5.905243  -1.499384

