%chk=mol_4496.chk
# wB97XD/Def2SVP opt freq pop=full gfinput

C 4 H 10 N 2 O 1

1 2
C    0.91123968   0.09098997   0.09157997
C    2.42583919   0.00559000  -0.07386997
C    2.84959888  -0.72958970  -1.35013950
N    2.38918924  -2.11583924  -1.37228942
C    2.98075891   1.40744948  -0.14099994
N    3.87878847   1.80684924   0.70016974
O    4.21520853   3.13225889   0.40404984
H    0.65110976   0.69638973   0.96700966
H    0.46928981  -0.90064961   0.22888991
H    0.44028983   0.55808979  -0.78051972
H    2.85453892  -0.49692979   0.80218971
H    3.94261837  -0.71727973  -1.44072950
H    2.45554900  -0.21422993  -2.23448920
H    2.78784895  -2.62165904  -0.58105981
H    2.74462914  -2.57737923  -2.20944905
H    2.59776902   2.06885934  -0.94025964
H    4.86926794   3.34196877   1.09695959

