%chk=mol_6089.chk
# wB97XD/Def2SVP opt freq pop=full gfinput

C 4 H 6 N 2 O 1

1 2
O    1.36196947   0.16521993   0.63703978
C    2.43603897  -0.08622997   0.12137996
N    2.90715885  -1.30872941  -0.30939987
N    4.15009880  -1.27934957  -1.00254965
C    4.58061838   0.13368994  -0.84914970
C    3.88083863   1.24356961  -1.57949948
C    3.47768879   0.91615969  -0.16533993
H    2.26812935  -2.09466910  -0.37511984
H    4.79685831  -1.89560938  -0.50111985
H    5.60683775   0.29893988  -0.53992981
H    4.42696810   2.16417909  -1.74683940
H    3.20004892   0.98422962  -2.38240910
H    3.74466848   1.59521949   0.63091975

