%chk=mol_3602.chk
# wB97XD/Def2SVP opt pop=full gfinput

C 5 H 6 O 2

1 2
O    1.565695  -0.072925   0.420634
C    4.276356  -0.024170   0.040024
C    5.762153   1.920453   1.630569
O    6.557142  -0.034903   3.389337
C    5.824306  -1.964333   1.575786
C    4.770935   0.021675  -2.650870
C    5.175072   0.059640  -4.884526
H    1.362266  -0.101970   2.248717
H    4.611631   3.357099   2.572503
H    7.389944   2.824725   0.727148
H    7.479801  -2.790237   0.647968
H    4.720800  -3.463037   2.476335
H    5.515449   0.093050  -6.869003

