%chk=mol_4307.chk
# wB97XD/Def2SVP opt pop=full gfinput

C 4 H 5 N 1 O 2

1 2
C    3.227444  -0.839945  -2.298644
C    4.089027   0.393403  -0.260007
C    6.112300   2.388878  -0.189955
O    6.933159   3.079252  -2.636905
C    6.465830   5.573143  -2.667140
N    5.481888   6.597091  -0.702090
O    5.138770   4.598497   1.026537
H    1.744444  -2.247810  -2.124166
H    3.964570  -0.476003  -4.179205
H    3.268092  -0.057410   1.570570
H    7.733591   1.701623   0.898773
H    6.996541   6.521123  -4.432164

