%chk=mol_6772.chk
# wB97XD/Def2SVP opt freq pop=full gfinput

C 5 H 10 N 2

1 2
C    1.01530969   0.08980996   0.19274992
C    2.52382922   0.08681996   0.02514999
C    3.31914878   0.93254966   1.02621961
N    3.82454848  -0.27916992   1.60644948
C    3.26520872  -1.12817967   0.59181976
C    5.16913795  -0.36739987   1.83755922
N    5.92990780   0.51540983   2.38774920
H    0.55684978  -0.66638976  -0.45205984
H    0.60052979   1.06418955  -0.08644997
H    0.72031969  -0.12089996   1.22596955
H    2.79714918   0.29990989  -1.01699960
H    2.73408890   1.51396942   1.74355936
H    4.08384848   1.56661940   0.56597978
H    4.00210857  -1.56202948  -0.09299996
H    2.64515901  -1.91973925   1.02080953
H    5.61032772  -1.33248949   1.53464949
H    5.35706806   1.32133949   2.65248895

