%chk=mol_6368.chk
# wB97XD/Def2SVP opt freq pop=full gfinput

C 5 H 7 N 1 O 1

1 2
O    0.79019970   1.15335953  -0.70735973
N    2.13631916   1.01611960  -1.06316960
C    2.86485887   1.18177962  -0.00817000
C    4.36171865   1.11574960  -0.08988997
C    4.92890835   2.52294898   0.03221999
C    6.39826727   2.51100898  -0.01839999
C    7.59805727   2.50776911  -0.06411997
H    0.33376989   1.01183963  -1.55823946
H    2.42218900   1.40602958   0.97889966
H    4.66048813   0.65442979  -1.03800964
H    4.71818829   0.47738984   0.72645974
H    4.59811831   2.98124886   0.97300965
H    4.53800821   3.15525889  -0.77345973
H    8.66337681   2.50729918  -0.10853996

