%chk=mol_7111.chk
# wB97XD/Def2SVP opt freq pop=full gfinput

C 6 H 9 N 1

1 2
C    0.66841978  -0.10748997  -0.08469997
C    2.11315918  -0.48697981   0.08846997
C    2.48606896  -1.76574934   0.26028991
C    3.12946892   0.63191974   0.01569000
C    3.09432888   1.54551935   1.24191964
C    4.12629843   2.58658886   1.14299953
N    4.93883801   3.40943861   1.06349957
H    0.33426988   0.52622980   0.74232972
H    0.01443999  -0.98559958  -0.11391996
H    0.52893978   0.43955982  -1.02267957
H    1.75795937  -2.57148886   0.29497987
H    3.52941871  -2.04869914   0.36736986
H    2.95165873   1.21554959  -0.89734966
H    4.13968849   0.21405993  -0.09480996
H    3.25426888   0.95776969   2.15360928
H    2.11209917   2.02241921   1.33566952

