%chk=mol_0123.chk
# wB97XD/Def2SVP opt freq pop=full gfinput

C 5 H 4

1 2
C    0.99999964   0.00000000   0.00000000
C    2.19015908   0.00000000   0.00000000
C    3.63415861   0.00000000   0.00000000
C    4.11617851   1.36116946   0.00000000
C    4.51345825   2.48306894   0.00000000
H   -0.06509998   0.00580000   0.00000000
H    4.01195860  -0.53456980  -0.87852967
H    4.01195860  -0.53456980   0.87852967
H    4.86350775   3.48894882   0.00000000

