%chk=mol_6932.chk
# wB97XD/Def2SVP opt freq pop=full gfinput

C 5 H 6 N 2

1 2
C    2.74725890  -1.19612956   0.33344987
C    2.28776932   0.04775998   0.13600996
C    3.06038880   1.24905956   0.05767998
N    2.49575901   2.44777894  -0.14371996
N    3.52580857   3.30617857  -0.15557995
C    4.73487806   2.70848894   0.03041999
C    4.46897840   1.36785948   0.17285994
H    2.05638933  -2.03219938   0.37380987
H    3.80100870  -1.41692948   0.45830983
H    1.21358955   0.17850994   0.02048999
H    3.32732892   4.29107809  -0.29656988
H    5.65448761   3.27517867   0.04468998
H    5.19432783   0.58438981   0.33735988

