%chk=mol_3375.chk
# wB97XD/Def2SVP opt freq pop=full gfinput

C 7 H 12

1 2
C    2.58175921  -1.10435951   1.18025959
C    3.17721868  -0.44031984  -0.05161998
C    3.08939886   1.05600965   0.03508998
C    4.15594816   1.87175941   0.00704000
C    4.07528830   3.36940885   0.07996996
C    4.80579805   3.89323854   1.28226948
C    5.85415792   4.72460794   1.22819960
H    2.65166903  -2.19327927   1.09332955
H    1.52500939  -0.84287971   1.29967952
H    3.11298871  -0.80191970   2.08878922
H    2.63336897  -0.77344972  -0.94307965
H    4.21702862  -0.76717973  -0.17007993
H    2.08989930   1.47916937   0.11506996
H    5.15498781   1.44943953  -0.08481997
H    3.03249884   3.70418859   0.13312995
H    4.49392843   3.78587866  -0.84398967
H    4.43745804   3.57130861   2.25470924
H    6.25537777   5.07765818   0.28313991
H    6.33592749   5.07017851   2.13784909

