%chk=mol_2911.chk
# wB97XD/Def2SVP opt pop=full gfinput

C 6 H 10 O 1

1 2
C    3.312954   0.644737  -4.987516
C    5.587750   0.693529  -3.315827
C    6.159109   2.611545  -1.749697
C    8.396488   2.790010   0.003912
O    9.964072   0.623118  -0.231397
C   10.067478   5.056926  -0.399450
C    9.902845   6.848821  -2.184996
H    2.105174  -0.957505  -4.487760
H    3.896370   0.429365  -6.960220
H    2.189985   2.374932  -4.834335
H    6.797874  -0.965858  -3.398446
H    4.874435   4.216357  -1.657951
H    7.687916   2.835761   1.949007
H   10.701047   0.720212  -1.911061
H   11.601690   5.212715   0.965726
H    8.443995   6.839259  -3.626082
H   11.260103   8.387361  -2.242632

