%chk=mol_2678.chk
# wB97XD/Def2SVP opt freq pop=full gfinput

C 5 H 10 O 2

1 2
C    2.00068927  -0.25903991  -1.35724950
C    2.55123901   0.22681990  -0.02576999
C    3.43087888   1.46441948  -0.17233993
O    2.66442919   2.55777907  -0.69582975
C    3.06206894   3.67613864   0.09316996
C    3.34465861   3.06079888   1.43605947
O    3.97317863   1.82207942   1.10805964
H    1.39821947  -1.16054952  -1.21000957
H    2.81244898  -0.50264978  -2.04946923
H    1.36448956   0.49821982  -1.82473934
H    3.12332892  -0.57642978   0.45496982
H    1.71009934   0.45005983   0.64356977
H    4.26845837   1.26591957  -0.85007966
H    3.96578860   4.10532856  -0.35264987
H    2.27475929   4.43318844   0.11948995
H    3.99624848   3.67135859   2.06612921
H    2.41974902   2.83781910   1.97922921

