%chk=mol_1450.chk
# wB97XD/Def2SVP opt freq pop=full gfinput

C 5 H 12 N 2

1 2
C    1.86543930  -0.65204978   0.91247970
C    2.29126906   0.16395994  -0.29480991
C    3.29776883   1.23192954   0.12278995
N    2.84196901   2.38882923   0.49771982
N    4.65619802   0.96066964   0.13979994
C    5.23478794  -0.16676994  -0.57476979
C    5.58665800   2.04007912   0.46229982
H    1.14406955  -1.42044950   0.61902976
H    1.39687955  -0.01518999   1.67064929
H    2.72358894  -1.14615965   1.37977946
H    1.41495943   0.65038973  -0.73806971
H    2.71192908  -0.48564979  -1.06610954
H    1.81949925   2.40790915   0.44482982
H    4.77157831  -1.10842955  -0.26426992
H    6.30817747  -0.26656991  -0.37842986
H    5.10163784  -0.04159999  -1.65468943
H    5.25921774   2.59506917   1.34829950
H    5.67226791   2.73359895  -0.38030985
H    6.58535719   1.65131938   0.69103974

