%chk=mol_4556.chk
# wB97XD/Def2SVP opt freq pop=full gfinput

C 5 H 5 N 1 O 1

1 2
C    0.99999964   0.00000000   0.00000000
C    2.19015908   0.00000000   0.00000000
C    3.63415861   0.00000000   0.00000000
O    4.17053843   0.79570973   1.06357956
C    3.83937860   2.19267917   0.99493963
C    4.39215803   2.87486887  -0.18664992
N    4.80848789   3.41165876  -1.12753963
H   -0.06608998  -0.00596000  -0.00067000
H    4.04170847   0.33581990  -0.95918965
H    4.00579834  -1.01834965   0.15540995
H    4.25856829   2.65188909   1.89672935
H    2.75356889   2.32814908   1.05958951

