%chk=mol_3211.chk
# wB97XD/Def2SVP opt freq pop=full gfinput

C 6 H 8 O 1

1 2
C    2.34785914  -0.42451984   1.68786943
C    2.68565893  -0.49052984   0.20963992
O    3.81429863   0.34831986  -0.02387999
C    4.30270815   0.43574986  -1.30577946
C    3.81355858  -0.18779992  -2.38930917
C    5.44043827   1.27969956  -1.45722950
C    6.40109777   1.99236929  -1.57826948
H    1.48985946  -1.06138957   1.92065930
H    2.11564922   0.60370982   1.98451924
H    3.20179892  -0.74580973   2.29346919
H    1.82588935  -0.13970995  -0.37256986
H    2.92187881  -1.52633941  -0.05977998
H    2.95385885  -0.84383970  -2.35677910
H    4.27539825  -0.05171998  -3.36316872
H    7.25112724   2.62423897  -1.67854929

