%chk=mol_4281.chk
# wB97XD/Def2SVP opt freq pop=full gfinput

C 4 H 6 N 2 O 1

1 2
C    0.96657962  -0.10439996  -0.00025000
C    2.47520924   0.07454997   0.00995000
C    2.84980893   1.50574946  -0.00159000
N    3.09591889   2.31693912   1.00365961
C    3.37698865   3.48603868   0.35641986
N    3.31703877   3.43507886  -0.97717965
O    2.96296883   2.10545921  -1.22376955
H    0.70991975  -1.16845953   0.01468999
H    0.52053982   0.34052986  -0.89647967
H    0.50586981   0.36907986   0.87358969
H    2.91203904  -0.43237984  -0.85827971
H    2.89302897  -0.40260985   0.90306967
H    3.63309860   4.40285873   0.86790967

