%chk=mol_1367.chk
# wB97XD/Def2SVP opt pop=full gfinput

C 6 H 13 N 1

1 2
C    3.859709  -0.024377   1.269140
C    5.312946  -0.331042  -1.216757
C    3.785802  -1.849002  -3.182866
N    3.238443  -4.422810  -2.346926
C    5.975635   2.245297  -2.265460
C    8.437759   3.486942  -1.545040
C    8.054542   2.535086  -4.193113
H    4.941123   1.118680   2.614190
H    3.484882  -1.853935   2.158332
H    2.045799   0.926930   0.962173
H    7.064836  -1.366121  -0.806138
H    4.843387  -1.946153  -4.961986
H    2.002127  -0.881255  -3.599607
H    4.890309  -5.351591  -2.003336
H    2.366882  -5.380466  -3.772233
H    4.330024   3.450867  -2.477715
H    9.747113   2.466754  -0.344951
H    8.438024   5.514013  -1.242287
H    7.789999   3.920218  -5.680422
H    9.101563   0.873696  -4.775357

