%chk=mol_5582.chk
# wB97XD/Def2SVP opt freq pop=full gfinput

C 4 H 8 N 2 O 1

1 2
N    1.13439965   0.03112999   0.49226981
C    2.31984901   0.03478999  -0.01772999
C    3.12291884  -1.26419961  -0.10690995
O    4.12541866  -1.26053953  -1.12697959
C    4.91769791  -0.06892998  -1.06158972
C    4.05391836   1.17522955  -1.30150950
N    2.90257883   1.21815956  -0.41249985
H    0.77270973   0.98328966   0.43457985
H    2.45480895  -2.10882926  -0.28057989
H    3.61926866  -1.41887951   0.86356968
H    5.42371798  -0.02191999  -0.09106997
H    5.68371773  -0.13679995  -1.83851922
H    4.65191793   2.08569908  -1.18073964
H    3.67457843   1.15901959  -2.33004904
H    2.98413897   1.88721931   0.34624988

