%chk=mol_6514.chk
# wB97XD/Def2SVP opt freq pop=full gfinput

C 4 H 6 N 2 S 1

1 2
C    0.87653971  -0.16774993   0.02879999
C    2.38987899  -0.01805999  -0.01612999
C    2.80358911   1.41160941  -0.02720999
C    3.05456877   2.28586912   1.01357961
N    3.42712855   3.56536865   0.63931972
N    3.46989870   3.69454861  -0.67638969
S    3.06476879   2.28391910  -1.48214936
H    0.60162979  -1.22691953   0.05091998
H    0.40571985   0.28672987  -0.84899968
H    0.45712984   0.31042987   0.92045963
H    2.78258896  -0.54059982  -0.89694965
H    2.82597899  -0.51473981   0.85947973
H    2.98249888   2.05057931   2.06681919

