%chk=mol_1703.chk
# wB97XD/Def2SVP opt pop=full gfinput

C 6 H 13 N 1

1 2
C    2.115718   0.748861   1.793709
N    4.864325   0.817968   1.690417
C    5.738002   2.788348  -0.030368
C    8.567130   2.754219   0.012132
C   10.045218   1.203661  -1.874930
C   10.039888   4.045242  -2.062409
C   12.354671   5.520495  -1.426724
H    1.515334  -0.695306   3.145033
H    1.300661   0.278980  -0.047470
H    1.343879   2.557574   2.434383
H    5.524954  -0.883617   1.075311
H    5.083666   4.648688   0.602936
H    5.019547   2.464222  -1.947287
H    9.301289   2.908534   1.921587
H    9.020211   0.152879  -3.304148
H   11.740453   0.263447  -1.211050
H    9.001729   4.899039  -3.609282
H   13.450919   4.634497   0.089970
H   11.835752   7.426095  -0.814283
H   13.574375   5.685298  -3.088077

