%chk=mol_3058.chk
# wB97XD/Def2SVP opt freq pop=full gfinput

C 6 H 6 O 1

1 2
C    0.86842972   0.10386997  -0.00457000
C    2.36615920   0.03912999  -0.00486000
C    2.94922876  -1.33157945  -0.01091000
O    2.25021911  -2.33962917  -0.01536999
C    3.13901877   1.13798952   0.00000000
C    4.54501867   1.13798952   0.00000000
C    5.73517752   1.13798952   0.00000000
H    0.50297982   1.13654959  -0.00001000
H    0.46263981  -0.39348984   0.88259971
H    0.46263981  -0.38562986  -0.89610970
H    4.04817867  -1.40322936  -0.01123000
H    2.66221905   2.11553931   0.00432000
H    6.80087757   1.14124966   0.00001000

