%chk=mol_4601.chk
# wB97XD/Def2SVP opt freq pop=full gfinput

C 4 H 7 N 1 O 2

1 2
C    1.10039961  -0.02425999   0.05583998
C    2.53325891   0.01317000  -0.45736983
C    2.72411919  -1.08378959  -1.47126937
O    2.99061871  -0.89637971  -2.65382886
C    2.82269883   1.38141954  -1.00968957
N    3.51649880   2.23137927  -0.32316989
O    3.59816861   3.42920852  -1.04194963
H    0.93933964   0.73993975   0.82385969
H    0.86318964  -1.00086963   0.49127981
H    0.38351986   0.16169995  -0.75224972
H    3.22329879  -0.18502992   0.37105986
H    2.60983896  -2.11104918  -1.08279967
H    2.38059902   1.64463937  -1.98822927
H    4.14827871   3.98768854  -0.46161982

