%chk=mol_0578.chk
# wB97XD/Def2SVP opt pop=full gfinput

C 4 H 8 N 2

1 2
N    1.703361   2.158143  -1.427216
N    4.160534   1.497514  -1.680231
C    5.626055   2.650209  -0.103368
C    8.354687   2.071537  -0.211101
C    9.912067   2.955399  -2.431038
C   10.264217   4.166242   0.107903
H    0.617959   0.950929  -2.478867
H    1.385207   3.899166  -2.206350
H    4.962553   4.019107   1.326380
H    8.842766   0.243491   0.581525
H    8.975179   4.031428  -3.902020
H   11.376699   1.700432  -3.120977
H   11.982186   3.744190   1.141432
H    9.593894   6.087205   0.347445

