%chk=mol_4568.chk
# wB97XD/Def2SVP opt freq pop=full gfinput

C 5 H 11 N 1 O 1

1 2
C    1.09458959   0.08996996  -0.25753990
C    2.56293893  -0.19347993  -0.06067998
C    2.93187881  -1.64908934  -0.14175993
O    2.36302900  -2.33829904   0.96148968
C    3.42843866   0.82136965   0.14264995
C    4.90591812   0.75750977   0.35978988
N    5.57492781   1.49200940  -0.70184976
H    0.87198967   1.16197956  -0.24028990
H    0.50333983  -0.38269985   0.53347981
H    0.75902975  -0.30043989  -1.22433949
H    4.00867844  -1.82945931  -0.13192995
H    2.54249907  -2.09179926  -1.06502962
H    2.54532909  -1.80164933   1.75143933
H    3.03287888   1.83767939   0.16896994
H    5.29352760  -0.26252991   0.39987984
H    5.14006805   1.22651958   1.32276952
H    5.40315819   1.02000964  -1.58886945
H    6.58151722   1.45281947  -0.55250978

