%chk=mol_3776.chk
# wB97XD/Def2SVP opt pop=full gfinput

C 7 H 14

1 2
C    6.438656   4.624972  -4.060530
C    6.566439   5.039900  -1.217834
C    8.031582   2.969950   0.181414
C   10.776957   2.702308  -0.584719
C   11.650936   0.523964  -1.557834
C   12.510894   4.949174  -0.229148
C   12.809622   5.726777   2.524674
H    5.255763   6.078417  -4.936683
H    5.617815   2.778993  -4.504162
H    8.312433   4.733121  -4.927990
H    4.633439   5.089902  -0.470863
H    7.390284   6.899730  -0.828550
H    7.035431   1.170137  -0.091727
H    7.940081   3.346327   2.217386
H   10.428869  -1.102580  -1.826250
H   13.613530   0.303603  -2.115360
H   11.807236   6.554534  -1.332200
H   14.394932   4.526518  -0.987174
H   11.027232   6.415734   3.315770
H   14.194413   7.255717   2.682485
H   13.468437   4.144264   3.683303

