%chk=mol_4276.chk
# wB97XD/Def2SVP opt freq pop=full gfinput

C 5 H 11 N 1 O 1

1 2
C    2.76793885  -1.30250955  -0.32716987
C    2.23215914  -0.00079000   0.25140992
C    3.26463890   1.10889959   0.23233990
N    4.43218851   0.94317961   1.13443959
C    3.49483871   1.84515941  -1.06470966
C    2.76389885   2.53270888   0.04965998
O    3.51666856   3.53128862   0.76090974
H    1.98491919  -2.06683922  -0.32737988
H    3.60944867  -1.68177938   0.25942990
H    3.11052895  -1.16312957  -1.35690951
H    1.89819932  -0.16824995   1.28319943
H    1.34178948   0.29459989  -0.31987986
H    4.11475849   0.68148977   2.06899929
H    5.01437807   0.16942994   0.81234974
H    2.91914892   1.55984938  -1.93798923
H    4.49577856   2.18778920  -1.30081952
H    1.70071936   2.70388889  -0.07836998
H    4.29336834   3.09231877   1.16513956

