%chk=mol_0755.chk
# wB97XD/Def2SVP opt pop=full gfinput

C 4 H 6 O 2

1 2
C    1.277190   0.153862  -0.222534
C    3.970485   0.023244   0.604882
C    5.705215   1.766119   0.025549
O    8.199162   1.542470   0.854156
C    9.794186   3.448864   0.152917
O    9.314234   5.323586  -1.106057
H    0.805288  -1.511856  -1.353516
H    0.890609   1.837154  -1.361189
H    0.033014   0.191807   1.429181
H    4.513668  -1.598425   1.742932
H    5.307523   3.430514  -1.097969
H   11.679301   3.027738   0.929934

