%chk=mol_2558.chk
# wB97XD/Def2SVP opt freq pop=full gfinput

C 6 H 10 O 1

1 2
C    0.96016967   0.01078000  -0.04990998
C    2.48221898  -0.01387000  -0.00787000
O    2.98431873   0.12613995  -1.32738948
C    3.04594898  -1.28667951   0.64484978
C    3.40087867  -0.89806968   2.08130932
C    3.55003858   0.58567977   1.99905920
C    3.04546881   1.06908953   0.85883969
H    0.51935983  -0.09406997   0.94658965
H    0.57962978  -0.79876971  -0.68236971
H    0.59674978   0.94628966  -0.49025980
H    3.94387865   0.26854989  -1.25731945
H    3.94821835  -1.62810946   0.11982995
H    2.33871913  -2.12322927   0.62312979
H    4.32675838  -1.38311946   2.40265918
H    2.60005903  -1.16053963   2.77974916
H    3.97658849   1.18941951   2.78889894
H    3.00598884   2.11845922   0.59751981

