%chk=mol_3957.chk
# wB97XD/Def2SVP opt freq pop=full gfinput

C 5 H 5 N 1 O 1

1 2
C    0.98784965   0.05156998   0.00525000
C    2.45779920  -0.05357998   0.00265000
C    3.27361894  -1.10798955   0.00060000
C    4.65946817  -0.60859978  -0.00201000
O    5.63856792  -1.33387947  -0.00407000
N    4.62484837   0.76269966  -0.00183000
C    3.37427878   1.07732964   0.00080000
H    0.51802981  -0.93714964   0.00110000
H    0.64001977   0.59438974  -0.87905967
H    0.64263976   0.58585978   0.89573961
H    3.03255892  -2.15540910   0.00076000
H    2.98207879   2.10466909   0.00162000

