%chk=mol_6336.chk
# wB97XD/Def2SVP opt freq pop=full gfinput

C 6 H 9 N 1

1 2
C    0.99013960  -0.05156998   0.08274997
C    2.49675894   0.07562997  -0.00518000
C    3.16740894   1.11468959   0.91680968
C    4.19179821   0.00621000   1.23106956
N    3.19535875  -0.98290962   0.76021969
C    5.38529825  -0.02412999   0.40781984
C    6.37315750  -0.05107998  -0.27680987
H    0.64039975  -0.92558968  -0.47697982
H    0.50773978   0.83223969  -0.34754989
H    0.64438975  -0.15051995   1.11758959
H    2.83775902   0.14671995  -1.04693961
H    2.56763911   1.41441941   1.78508937
H    3.54441881   2.01589942   0.42438984
H    4.41972828  -0.08649997   2.29889894
H    3.58365846  -1.73283935   0.19066992
H    7.24781752  -0.07552997  -0.88430965

