%chk=mol_1022.chk
# wB97XD/Def2SVP opt freq pop=full gfinput

C 4 H 5 N 1 O 1

1 2
C    1.02133965   0.05278998   0.10976996
C    2.48008895   0.00311000  -0.27172989
O    2.94716883  -0.97482967  -0.85856968
C    3.33129883   1.21159959   0.02565999
C    3.29342890   1.54599941   1.44614947
N    3.24243879   1.82425928   2.57193923
H    0.56997979   0.96950966  -0.27810991
H    0.91491967   0.00701000   1.19591963
H    0.49999982  -0.80241972  -0.32999986
H    2.97008872   2.04392934  -0.58689982
H    4.36055803   0.99814963  -0.28248990

