%chk=mol_7051.chk
# wB97XD/Def2SVP opt freq pop=full gfinput

C 6 H 11 N 1

1 2
C    2.84726882  -1.19018948  -1.26204956
C    2.63365912  -0.47117984   0.03965998
C    1.83362937  -0.97113961   0.99666965
C    3.34287882   0.85556972   0.20787993
C    4.84546804   0.76450974   0.18641992
C    5.62807751   1.21408963  -1.02243960
N    5.62981796   2.00217938   0.20556992
H    2.57075906  -0.54628980  -2.10279918
H    2.24391913  -2.10185933  -1.33001959
H    3.89663863  -1.48010945  -1.37341952
H    1.31607950  -1.91751921   0.87032968
H    1.66981936  -0.44526982   1.93319929
H    3.05153894   1.31537950   1.16138959
H    2.98786879   1.53942943  -0.57437974
H    5.22960758  -0.04400998   0.79751968
H    5.09861803   1.65321946  -1.85923934
H    6.54613733   0.69661975  -1.27072954
H    6.49932766   1.86714923   0.72618973

