%chk=mol_5662.chk
# wB97XD/Def2SVP opt freq pop=full gfinput

C 4 H 10 N 2 O 1

1 2
N    0.95168960   0.61324978  -0.68907976
C    2.24096918   0.23673992  -0.10516996
C    3.14705873   1.42619956   0.02322999
N    2.72922897   2.75302887  -0.45948982
C    2.81006885   2.53923893   0.99115968
C    3.88264871   3.22792864   1.77678931
O    4.96983814   3.59357858   0.93235964
H    0.34161988  -0.20447992  -0.68351972
H    1.10369956   0.82828969  -1.67630935
H    2.71256900  -0.52103978  -0.74089974
H    2.08207917  -0.21183991   0.88072968
H    4.19121838   1.16673946  -0.10232996
H    1.74748933   2.68118906  -0.75313973
H    1.87040925   2.49411917   1.52896953
H    4.26016808   2.57602906   2.56987906
H    3.48725867   4.14022827   2.23507905
H    4.56019831   3.73261857   0.05355998

