%chk=mol_6493.chk
# wB97XD/Def2SVP opt pop=full gfinput

C 4 H 6 N 2 S 1

1 2
C    1.657611  -0.035092  -0.007219
C    4.459527   0.102631  -0.008220
C    6.098316   2.127567  -0.007181
N    5.394941   4.576142  -0.003288
C    8.653226   1.266476  -0.012227
N    9.024349  -1.220933  -0.014797
S    6.221753  -2.624017  -0.013852
H    0.801093   1.846603   0.016214
H    0.974551  -1.053069   1.660219
H    0.972548  -1.013026  -1.697598
H    6.661152   6.018249   0.030500
H    3.563287   5.142587   0.035735
H   10.318396   2.450861  -0.013871

