%chk=mol_1908.chk
# wB97XD/Def2SVP opt pop=full gfinput

C 6 H 11 N 1

1 2
N    1.670272  -0.047923   0.707532
C    4.300468   0.148136  -0.086512
C    5.678003   2.055701   1.634386
C    7.747669   0.038985   2.083574
C    5.836967  -1.983286   1.161993
C   10.174777   0.186346   0.655716
C   10.411389   1.232215  -1.635275
H    0.744193  -1.549538  -0.066065
H    0.615446   1.504203   0.271705
H    4.604450   0.391022  -2.116304
H    4.681910   2.568761   3.381363
H    6.261305   3.814563   0.716244
H    8.182533  -0.170227   4.102785
H    6.569312  -3.409349  -0.146038
H    4.907902  -2.973692   2.729842
H   11.826964  -0.627824   1.567509
H    8.846734   2.073804  -2.651040
H   12.241627   1.268611  -2.564963

