%chk=mol_2673.chk
# wB97XD/Def2SVP opt freq pop=full gfinput

C 6 H 6 O 1

1 2
C    0.99999964   0.00000000   0.00000000
C    2.19015908   0.00000000   0.00000000
C    3.63415861   0.00000000   0.00000000
O    4.12354851  -1.19683957   0.64053977
C    4.64791822  -0.84162968   1.93170929
C    4.74752855   0.63654977   1.92710924
C    4.16637850   1.11610961   0.82762969
H   -0.06534997  -0.00687000   0.00388000
H    4.04310846   0.03079999  -1.01435959
H    5.62305784  -1.31950951   2.05704927
H    3.96297860  -1.19879961   2.70698905
H    5.19920778   1.22312951   2.71200895
H    4.07619858   2.15975928   0.56789976

