%chk=mol_1282.chk
# wB97XD/Def2SVP opt freq pop=full gfinput

C 6 H 11 N 1

1 2
C    0.99999964   0.00000000   0.00000000
C    2.44399905   0.00000000   0.00000000
C    3.63415861   0.00000000   0.00000000
C    5.07815790   0.00000000   0.00000000
N    5.63673782   1.36214948   0.01582999
C    5.39360809   2.02752924   1.29967952
C    7.07552767   1.31716955  -0.25332990
H    0.60611975   1.02089965   0.01412999
H    0.60596979  -0.52252984   0.87706965
H    0.60588974  -0.49816981  -0.89109963
H    5.40899801  -0.51298982  -0.91248965
H    5.46337795  -0.58819973   0.84273964
H    4.32251835   2.14987922   1.48963952
H    5.81807756   3.03803897   1.29179955
H    5.83426762   1.47853947   2.13949919
H    7.27016735   0.87500966  -1.23598957
H    7.61959696   0.73804969   0.50091982
H    7.49402714   2.32934904  -0.27970991

