%chk=mol_6322.chk
# wB97XD/Def2SVP opt pop=full gfinput

C 4 H 5 N 1 O 2

1 2
O    2.132216  -0.102744  -0.663653
N    4.681343  -0.005820  -0.037851
C    6.022255  -2.160807   0.228109
C    8.399549  -1.555925   0.836260
C    8.710598   1.286488   1.001857
C    6.038393   2.163207   0.370330
O    5.268008   4.334238   0.253979
H    1.697994   1.693459  -0.695722
H    5.175034  -3.996374  -0.038059
H    9.906663  -2.891111   1.169608
H    9.228553   1.878048   2.910235
H   10.047674   1.981964  -0.408408

