%chk=mol_1938.chk
# wB97XD/Def2SVP opt freq pop=full gfinput

C 5 H 6 N 2

1 2
N    0.99451965  -0.00806000   0.25121990
C    2.37098908  -0.02560999  -0.00409000
C    3.09746885   1.16313958  -0.04786998
C    4.48608828   1.13151956  -0.17277993
C    5.11512804  -0.10169996  -0.20698991
N    4.46129847  -1.27616954  -0.10983995
C    3.11387873  -1.20580959   0.01698999
H    0.52652979   0.82681972  -0.08821997
H    0.51407981  -0.85672969  -0.03285999
H    2.59051895   2.12196922   0.01546999
H    5.06207800   2.04841924  -0.22631991
H    6.19478750  -0.17697993  -0.30259988
H    2.62457895  -2.16756916   0.13910994

