%chk=mol_2849.chk
# wB97XD/Def2SVP opt freq pop=full gfinput

C 6 H 14 O 1

1 2
C    1.09666967  -0.23706990   0.19279993
C    2.61034894  -0.15294994   0.06020998
C    3.17168880   1.27432954   0.20927992
C    2.80146909   1.96419930   1.54095936
C    3.28108883   1.24755955   2.79556894
C    4.69014835   1.25204957  -0.03539998
O    5.23965836   2.56146908   0.02113999
H    0.75643975  -1.25203955  -0.03740999
H    0.60192978   0.45091984  -0.49995983
H    0.76783973  -0.00379000   1.20971954
H    2.88448906  -0.53755975  -0.93040967
H    3.07448888  -0.82661968   0.78977966
H    2.72774887   1.89433932  -0.58241981
H    1.71314931   2.08297920   1.59961939
H    3.20647883   2.98369884   1.54714942
H    2.85005879   0.24586990   2.87742901
H    2.97621894   1.81074929   3.68380857
H    4.37093830   1.16096961   2.81814885
H    4.91689825   0.83649969  -1.02348959
H    5.20738792   0.63497978   0.70572972
H    4.78569794   3.09791875  -0.65177977

