%chk=mol_1025.chk
# wB97XD/Def2SVP opt pop=full gfinput

C 4 H 7 N 1 O 1

1 2
C    1.942185  -3.195527   0.077498
C    3.673420  -0.924001   0.305304
O    2.145897   1.295105   0.433787
C    3.607487   3.562833   0.706266
C    4.838474   4.343441  -1.664735
N    5.852690   4.958301  -3.511508
H    3.034182  -4.946339  -0.036453
H    0.752451  -3.038831  -1.608384
H    0.668982  -3.307418   1.704911
H    4.924872  -0.837035  -1.340288
H    4.817914  -1.085534   2.022725
H    4.989179   3.331323   2.231275
H    2.292351   5.046154   1.300377

