%chk=mol_5676.chk
# wB97XD/Def2SVP opt freq pop=full gfinput

C 4 H 10 N 2 O 1

1 2
N    2.79411912  -1.07785964  -0.57585979
C    2.20823908   0.06544998   0.11339995
C    3.22735882   1.17370951   0.18421993
O    4.41168833   0.85335964   0.94989967
C    3.45417881   2.06751919  -1.00346959
C    2.78244901   2.61940885   0.22437991
N    3.50876856   3.59212852   1.04779959
H    2.24107909  -1.91028929  -0.38933986
H    3.72227859  -1.24492955  -0.18465993
H    1.92083931  -0.22267991   1.13071954
H    1.30226958   0.38374987  -0.41359982
H    4.21675825   0.88550967   1.90133929
H    2.84752893   1.90600932  -1.88751936
H    4.47227859   2.36282921  -1.22578955
H    1.71667933   2.81885886   0.13529995
H    4.50168800   3.35183883   1.06493962
H    3.19424891   3.55982852   2.01504922

