%chk=mol_3523.chk
# wB97XD/Def2SVP opt freq pop=full gfinput

C 6 H 10 O 1

1 2
O    1.00230956   0.06052998   0.06252997
C    2.41586924  -0.00758000  -0.00407000
C    2.97719884  -1.12912953   0.87877971
C    3.77875853  -0.28108990   1.86719930
C    4.50336790   0.78180969   0.98031962
C    3.02201891   1.19692957   0.71262974
C    2.84321904   0.91071969   2.24013925
H    0.65556973  -0.77881968  -0.28507990
H    2.73427892  -0.08557997  -1.04754961
H    3.63323855  -1.79753923   0.31261989
H    2.19987917  -1.71912932   1.37529945
H    4.34150839  -0.77327967   2.65871906
H    5.07279825   0.40481985   0.12534995
H    5.11952829   1.51476943   1.51511943
H    2.82217908   2.20075917   0.34083986
H    3.26562881   1.65883934   2.92151880
H    1.83685935   0.65565974   2.58466887

