%chk=mol_1880.chk
# wB97XD/Def2SVP opt pop=full gfinput

C 5 H 10 N 2

1 2
N    2.909007  -0.612744  -0.926117
C    5.363081   0.034223   0.199442
C    6.934104  -2.077943   1.288396
C    7.706964  -0.782006  -1.122724
C    9.507817   1.390215  -1.140563
N    7.896277   3.581749  -0.592032
C    5.827707   2.729785   1.054448
H    2.551376   0.573683  -2.404771
H    1.487536  -0.330154   0.340737
H    6.214950  -3.991196   1.147687
H    8.016974  -1.720615   2.987714
H    7.565046  -1.773905  -2.901070
H   10.962944   1.159593   0.313846
H   10.425846   1.616396  -2.978171
H    8.915048   4.965388   0.267188
H    6.395457   2.783019   3.044632
H    4.170399   3.939172   0.800337

