%chk=mol_4168.chk
# wB97XD/Def2SVP opt freq pop=full gfinput

C 5 H 9 N 1 O 1

1 2
C    1.04926956   0.08136997   0.11466996
C    2.52942920   0.00108000  -0.15585995
N    3.15630889   1.11233950  -0.39977983
O    4.53201818   0.98615962  -0.67703974
C    5.18784809   0.05227998   0.17860994
C    4.68551779  -1.32001948  -0.20175993
C    3.17682886  -1.36278951  -0.05752998
H    0.59394974  -0.91205966   0.06837998
H    0.56967980   0.72737974  -0.62715977
H    0.88981962   0.50089985   1.11363959
H    6.26533794   0.12971996   0.00455000
H    4.99297810   0.29884988   1.22914946
H    5.15777826  -2.09975910   0.40452984
H    4.94203806  -1.51953948  -1.24958956
H    2.91737890  -1.77232933   0.92604965
H    2.73585916  -2.02431917  -0.81131971

