%chk=mol_0883.chk
# wB97XD/Def2SVP opt freq pop=full gfinput

C 5 H 10 O 1

1 2
O    1.98852932  -1.20207953  -0.77889973
C    2.06077909   0.20826992  -0.60271978
C    2.99252892   0.53621984   0.56133980
C    4.43480825   0.29374990   0.21197991
C    5.33208799   1.43398952  -0.19481993
C    5.51760817   0.77274972   1.14270961
H    1.38873959  -1.36509955  -1.52770948
H    1.05118954   0.57073981  -0.38528988
H    2.41101909   0.66256970  -1.53469944
H    2.73672915  -0.08902997   1.42532945
H    2.84687901   1.58385932   0.85254967
H    4.58657837  -0.67573977  -0.25233990
H    4.93156815   2.44091916  -0.20691992
H    6.07640791   1.24475956  -0.96041965
H    6.38247776   0.13333994   1.27974951
H    5.23200798   1.32639945   2.03040934

