%chk=mol_4823.chk
# wB97XD/Def2SVP opt freq pop=full gfinput

C 5 H 11 N 1 O 1

1 2
C    2.08681917   1.45942950   2.25327897
C    2.86315894   1.41746950   0.95184964
O    3.85879850   2.43758917   0.98332965
C    4.63844824   2.44045925  -0.21360992
C    5.57654810   3.60417867  -0.16449994
C    6.99852705   3.42788863   0.29957989
N    6.69404745   3.67241859  -1.10904968
H    1.29624951   0.70316976   2.26023912
H    1.63472939   2.44559908   2.40272903
H    2.75230908   1.28120947   3.10470891
H    2.18388915   1.59036934   0.11063996
H    3.33941889   0.43809983   0.83434969
H    3.97564864   2.54836917  -1.08233964
H    5.17889833   1.48962939  -0.29701990
H    5.06800842   4.53628826   0.04838998
H    7.35005760   2.43388915   0.54251981
H    7.46901703   4.23670864   0.84343970
H    6.89429712   4.64181805  -1.35886943

