%chk=mol_3280.chk
# wB97XD/Def2SVP opt pop=full gfinput

C 5 H 8 O 2

1 2
C    3.136095  -2.021100   2.436972
C    3.285062   0.250332   0.727620
O    1.408829   1.040067  -0.404855
C    5.823569   1.595590   0.577614
O    7.845595  -0.013134  -0.141219
C    8.160877  -0.543391  -2.644842
C    6.791506   0.215296  -4.631927
H    4.447848  -3.478891   1.792311
H    1.218873  -2.792146   2.402806
H    3.590763  -1.456771   4.371522
H    6.238931   2.302178   2.479302
H    5.691232   3.265296  -0.640485
H    9.797909  -1.757426  -2.876617
H    5.141453   1.418882  -4.482865
H    7.319287  -0.383047  -6.522843

