%chk=mol_2750.chk
# wB97XD/Def2SVP opt freq pop=full gfinput

C 6 H 10 O 1

1 2
C    1.76186931  -0.56371975  -1.17409956
C    2.46040893  -0.06730997  -0.14535995
C    3.04864883   1.31328952  -0.11582995
C    4.56588840   1.27095950   0.06971997
C    5.15785789   2.67688894   0.08602997
C    6.65278721   2.67623901   0.29453987
O    7.33498716   1.67125928   0.46090981
H    1.35786951  -1.57099938  -1.13549960
H    1.57718933   0.01522999  -2.07357931
H    2.61362910  -0.68873978   0.73536974
H    2.59035897   1.86738932   0.71213979
H    2.80475879   1.85676920  -1.03693962
H    5.02661800   0.68720973  -0.73802972
H    4.81312799   0.75556970   1.00703967
H    4.71405840   3.27073884   0.89229965
H    4.95833826   3.18582869  -0.86313969
H    7.12201738   3.67541862   0.29515988

