%chk=mol_0045.chk
# wB97XD/Def2SVP opt freq pop=full gfinput

C 3 H 6 O 1

1 2
O    0.98815960  -0.07103997  -0.30155990
C    2.35122895  -0.03046999   0.08645996
C    2.78787899   1.39440942   0.05398998
C    3.34084868   2.04765916   1.08443964
H    0.70702976  -0.99830967  -0.23449992
H    2.93750882  -0.62063980  -0.62422973
H    2.44886899  -0.46991983   1.08421957
H    2.62934899   1.92292929  -0.88310963
H    3.50997853   1.56646943   2.04241920
H    3.62667871   3.09058881   0.98829961

