%chk=mol_5381.chk
# wB97XD/Def2SVP opt pop=full gfinput

C 6 H 11 N 1

1 2
C    1.547648  -0.060944  -0.990387
C    4.254964   0.004819  -0.062059
C    6.162832  -1.408318  -1.687903
C    6.117648   1.421358  -1.733994
C    4.637634   0.059035   2.837915
C    2.961636   1.482925   4.653545
N    2.848800  -1.262318   4.484774
H    1.441294  -0.141503  -3.056878
H    0.531202   1.634708  -0.387828
H    0.563819  -1.724602  -0.256417
H    5.487822  -2.414522  -3.341055
H    7.732703  -2.335399  -0.752319
H    7.663992   2.420985  -0.834503
H    5.416295   2.345320  -3.423787
H    6.604933  -0.102461   3.429040
H    1.343274   2.497576   3.926171
H    3.799068   2.268559   6.345776
H    3.781436  -2.096670   5.952184

