%chk=mol_5522.chk
# wB97XD/Def2SVP opt pop=full gfinput

C 4 H 6 N 2 O 1

1 2
N    1.810074   0.000019   0.078405
C    4.338301  -0.020107   0.034960
C    5.833566   2.107838   0.011357
O    5.200508   4.539595   0.013946
N    8.299110   1.291760  -0.018652
C    8.365212  -1.303609  -0.023149
C    5.907681  -2.167724   0.007842
H    0.855214   1.661787  -0.031653
H    0.739866  -1.579036  -0.068484
H    6.718544   5.568078   0.012132
H    9.841184   2.414938  -0.035262
H   10.146091  -2.305542  -0.044957
H    5.329632  -4.127294   0.016497

