%chk=mol_2129.chk
# wB97XD/Def2SVP opt freq pop=full gfinput

C 4 H 5 N 3

1 2
N    1.00640965  -0.14790994   0.23198991
C    2.36163926  -0.06047998   0.05308998
N    3.02158880  -1.16288960  -0.11471996
C    3.10779881   1.24374950   0.03559999
C    2.52240896   2.35656905   0.51094979
C    4.44145823   1.28731954  -0.47150981
N    5.51987791   1.40672946  -0.88534963
H    0.46117982   0.66100973  -0.04516998
H    0.57260978  -1.01212966  -0.06892998
H    2.39730906  -1.96774924  -0.04453998
H    1.52757943   2.35875916   0.94030964
H    3.05150890   3.30653882   0.51356983

