%chk=mol_4364.chk
# wB97XD/Def2SVP opt freq pop=full gfinput

C 5 H 13 N 1 O 1

1 2
C    0.93798965  -0.24077992   0.15825994
C    2.44382906  -0.03132999  -0.04878998
C    2.98179889  -1.16204953  -0.93384969
C    2.76107907   1.36414945  -0.64362973
N    2.26783895   2.46787906   0.21305992
C    4.27181816   1.59654939  -0.86776966
O    4.48980856   2.95825887  -1.24116957
H    0.53463978   0.45485985   0.89983964
H    0.73298973  -1.25216949   0.52435982
H    0.38759986  -0.10242996  -0.77804971
H    2.93067908  -0.11869995   0.93232965
H    2.58875895  -1.08756959  -1.95347929
H    2.69675899  -2.14053917  -0.53249979
H    4.07476854  -1.14480948  -0.98471963
H    2.25688910   1.47591949  -1.61205935
H    2.57485914   2.30941916   1.17433965
H    1.24868953   2.44289923   0.24121991
H    4.66209793   0.96706963  -1.67142940
H    4.84422827   1.40198946   0.04483998
H    3.78318858   3.44807863  -0.76801974

