%chk=mol_5266.chk
# wB97XD/Def2SVP opt pop=full gfinput

C 4 H 5 N 1 O 2

1 2
C    1.409150  -0.116237   0.118032
N    4.069847  -0.040761  -0.518220
O    5.278723  -2.357547   0.112628
C    5.613998   2.059046  -0.290149
O    7.913946   1.876706  -0.021089
C    4.464384   4.538272  -0.326620
C    3.529063   6.609525  -0.347199
H    0.427532   1.505904  -0.699747
H    1.213355  -0.058582   2.175283
H    0.583661  -1.863535  -0.613386
H    7.045428  -1.835302   0.339433
H    2.723870   8.453312  -0.362204

