%chk=mol_3586.chk
# wB97XD/Def2SVP opt pop=full gfinput

C 5 H 4 O 2

1 2
O    2.339122  -0.191675   1.436419
C    4.367497  -0.002192   0.402587
C    6.291049   2.096065  -0.138044
C    7.764299  -0.058393  -1.379481
O    5.759526  -1.828216  -0.734253
C    8.063442   0.073926  -4.089783
C    8.291060   0.174006  -6.348894
H    7.147587   2.898972   1.559062
H    5.575032   3.587210  -1.372432
H    9.510633  -0.549986  -0.377775
H    8.474194   0.243699  -8.352306

