%chk=mol_3961.chk
# wB97XD/Def2SVP opt freq pop=full gfinput

C 4 H 8 N 2 O 1

1 2
C    1.00881958  -0.03957998   0.07213997
C    2.52814913  -0.00764000   0.03130999
C    3.11932898   1.17290950   0.80130970
C    4.39539814   0.59612978   1.33172941
O    5.33241796   1.21601951   1.80434930
N    4.29126835  -0.77519971   1.23792946
N    3.09961891  -1.21127951   0.65808976
H    0.62124979  -0.89743966  -0.48818982
H    0.59350973   0.86973971  -0.37567988
H    0.63298976  -0.11022995   1.09901965
H    2.86447883   0.04221999  -1.01236963
H    2.49865913   1.48468935   1.64784944
H    3.32641864   2.02104926   0.14341995
H    5.00913811  -1.38856947   1.61178935
H    3.29833865  -1.90859938  -0.06359997

