%chk=mol_2097.chk
# wB97XD/Def2SVP opt pop=full gfinput

C 5 H 10 N 2

1 2
N    3.078553  -1.646311  -1.009284
C    5.640663  -0.901437  -0.220814
C    6.031174   1.996458  -0.462208
N    3.835199   3.335367   0.641033
C    8.510609   2.877902   0.776224
C   10.754998   1.837759  -0.501703
C   12.590357   0.998437  -1.540599
H    2.935236  -3.566556  -0.920996
H    2.843414  -1.185085  -2.867754
H    7.022884  -1.915370  -1.380180
H    5.904506  -1.493791   1.746334
H    6.072257   2.477431  -2.480247
H    3.789165   2.980363   2.536126
H    2.271224   2.386271  -0.011697
H    8.541146   2.341560   2.778502
H    8.616282   4.948021   0.713391
H   14.224346   0.265903  -2.462219

