%chk=mol_6911.chk
# wB97XD/Def2SVP opt freq pop=full gfinput

C 6 H 13 N 1

1 2
C    2.10263920  -0.51004982  -1.32939959
C    2.41311908   0.06330997   0.04389998
C    3.27062869   1.31411946  -0.08488997
C    2.58663893   2.60334897  -0.59200978
C    3.31058860   3.30850863   0.57196981
C    4.64321804   3.97172856   0.25760990
N    3.46025872   1.98794925   1.22220945
H    1.50372946  -1.42094946  -1.23497963
H    3.02335906  -0.75925970  -1.86683929
H    1.54191935   0.20580992  -1.93861938
H    2.94344902  -0.69376975   0.63364977
H    1.47195935   0.27985990   0.56778979
H    4.22341824   1.10912967  -0.59136981
H    1.49393952   2.61109900  -0.49791983
H    2.85829902   2.92245889  -1.60197937
H    2.66382909   3.99318838   1.13353956
H    5.31988811   3.31154871  -0.29572991
H    5.14870787   4.28005838   1.17909956
H    4.48490810   4.86958790  -0.34960988
H    4.36142826   1.81621933   1.66479945

