%chk=mol_1090.chk
# wB97XD/Def2SVP opt freq pop=full gfinput

C 4 H 11 N 1 O 1

1 2
N    2.23125911  -0.94646966   1.03040957
C    2.20284915  -0.11356995  -0.17012994
C    3.09737897   1.11998963  -0.03578999
C    4.60643816   0.85311967  -0.12204996
C    5.21989822   0.20391992   1.11554956
O    4.94134808  -1.18577957   1.16588950
H    1.62128937  -1.75399935   0.87971967
H    1.80178928  -0.43075985   1.80206943
H    1.17015958   0.20595992  -0.34805986
H    2.51330900  -0.71019971  -1.03455961
H    2.86415887   1.66195941   0.88983971
H    2.83862901   1.80017924  -0.85842967
H    5.10057831   1.82058930  -0.26999992
H    4.81635809   0.24207991  -1.00740957
H    4.86771822   0.67602974   2.03814936
H    6.30857801   0.30991989   1.08067954
H    3.95962858  -1.26757956   1.18937957

