%chk=mol_1364.chk
# wB97XD/Def2SVP opt freq pop=full gfinput

C 6 H 13 N 1

1 2
C    1.11969948   0.25836989   0.04863998
C    2.63087893  -0.02069999   0.02043999
C    3.00024891  -0.90255964   1.21993947
N    2.96496868  -0.75592971  -1.20512950
C    3.39020872   1.28920949  -0.06978998
C    3.97119856   2.00025940   1.13114953
C    4.88780785   1.37359953   0.11634995
H    0.80008972   0.84020966  -0.82367969
H    0.84959966   0.83739972   0.93875968
H    0.53811979  -0.67031974   0.06152998
H    2.75026894  -0.41206986   2.16664910
H    4.06793833  -1.14456952   1.24397945
H    2.45268917  -1.85274935   1.19794965
H    2.65157890  -0.22717993  -2.01752925
H    2.45210910  -1.63603950  -1.22680950
H    2.97945881   1.92630923  -0.85023969
H    3.92363858   1.54434943   2.11174917
H    3.90850854   3.08283877   1.15401959
H    5.43911791   2.02853918  -0.54887980
H    5.43314791   0.47958982   0.39256984

