%chk=mol_3960.chk
# wB97XD/Def2SVP opt freq pop=full gfinput

C 5 H 9 N 1 O 1

1 2
C    0.95458966   0.00416000  -0.03463999
C    2.47385907   0.00373000   0.12903996
C    3.08037877   1.32751954  -0.32829988
C    3.70230865   1.17616951  -1.69975936
O    4.64021826   0.10579996  -1.62529933
N    4.01978827  -1.15060961  -1.47723949
C    3.03575873  -1.17604947  -0.63140976
H    0.50002980   0.81290972   0.54733980
H    0.52379978  -0.94079965   0.31518987
H    0.66524971   0.12959996  -1.08368957
H    2.69382906  -0.15729994   1.19107950
H    2.34985900   2.14369917  -0.32010987
H    3.87002850   1.60094941   0.38328987
H    4.24721861   2.08490920  -1.97374928
H    2.96015882   0.97589964  -2.48107910
H    2.56441903  -2.15527916  -0.43933982

