%chk=mol_5203.chk
# wB97XD/Def2SVP opt pop=full gfinput

C 4 H 8 N 2 O 1

1 2
C    2.078340   0.102801   0.272291
N    4.745839   0.011584  -0.395161
C    5.713757  -2.376047  -0.949965
O    4.539859  -4.374093  -0.926211
C    6.167650   2.213795  -0.449434
C    8.931848   2.074598  -1.151070
N    5.258787   4.415855   0.072320
H    1.094700   1.340704  -1.062121
H    1.890482   0.891138   2.175925
H    1.174994  -1.753817   0.236065
H    7.729471  -2.372910  -1.444450
H    9.139056   1.311829  -3.060638
H    9.944211   0.880707   0.198365
H    9.780202   3.960488  -1.111253
H    3.390093   4.371900   0.528972

