%chk=mol_1179.chk
# wB97XD/Def2SVP opt freq pop=full gfinput

C 6 H 11 N 1

1 2
C    1.00118959  -0.05361998   0.00313000
C    2.51999903   0.00000000   0.00000000
C    3.00201893   1.36116946   0.00000000
C    3.39929867   2.48306894   0.00000000
C    3.88131857   3.84423852   0.00000000
C    2.72282887   4.84798813  -0.01605999
N    3.20306873   6.23067760   0.01410999
H    0.65713972  -1.09297955   0.00308000
H    0.58509982   0.44213983  -0.88105965
H    0.58878976   0.44083983   0.88977963
H    2.89546895  -0.53280979  -0.88084966
H    2.89913893  -0.53410977   0.87847966
H    4.52462816   4.01251841  -0.87220967
H    4.50321817   4.01507854   0.88726962
H    2.06336927   4.68106842   0.84407967
H    2.11728907   4.70554829  -0.91884965
H    3.70081878   6.39954758   0.88768965
H    2.40175915   6.86134720   0.01931999

