%chk=mol_4372.chk
# wB97XD/Def2SVP opt pop=full gfinput

C 5 H 9 N 1 O 1

1 2
C    3.874146  -0.391665   2.872327
C    4.414343   0.377926   0.153408
C    5.588714   2.966435  -0.014626
C    3.830362   5.155985   0.011924
O    1.552580   4.930957   0.367967
C    8.087027   3.314788  -0.283175
N    9.492473   5.485006  -0.456350
H    3.017779  -2.273832   2.921479
H    2.570235   0.925286   3.790904
H    5.616361  -0.456520   3.987284
H    2.664042   0.313317  -0.955049
H    5.670312  -1.034379  -0.701277
H    4.683195   7.025775  -0.312712
H    9.299664   1.649769  -0.390965
H    8.708406   7.064193   0.304681
H   11.334124   5.272128   0.067369

