%chk=mol_5227.chk
# wB97XD/Def2SVP opt pop=full gfinput

C 4 H 8 N 2 O 1

1 2
C    2.770414   2.062901   1.213998
N    4.898057   1.465955   0.175121
N    6.447764   3.482255  -0.131109
C    9.093929   2.869946  -0.673045
C   10.556180   5.280537  -0.839530
C   12.735053   5.558403  -2.647355
O   10.295303   6.619635  -3.182904
H    1.344635   0.585399   1.555623
H    2.280295   4.000059   1.817406
H    5.825440   4.611045  -1.579414
H    9.227986   1.784015  -2.432607
H    9.875331   1.711997   0.855385
H   10.569427   6.357360   0.898508
H   13.324837   3.938794  -3.749406
H   14.239615   6.855756  -2.158937

