%chk=mol_1853.chk
# wB97XD/Def2SVP opt freq pop=full gfinput

C 5 H 10 N 2

1 2
C    1.35052955  -0.15091994  -0.47332981
N    2.79756904  -0.09583996  -0.29645991
N    3.31529880   1.14977956  -0.16256994
C    4.60551834   1.16578960  -0.10565996
C    5.26425791   2.47948909   0.04056999
C    5.31345797   3.14553881   1.39382946
C    6.57004738   2.59269881   0.78839970
H    1.03353965  -1.18871963  -0.61200976
H    1.04603958   0.41541985  -1.35909951
H    0.83324969   0.25447991   0.40186986
H    3.05058885  -0.69069976   0.49640980
H    5.24101830   0.26456991  -0.17031994
H    5.13337803   3.13206887  -0.81736970
H    4.87572813   2.62433910   2.23786926
H    5.18901825   4.22180843   1.42749953
H    7.30582714   3.29662871   0.41589984
H    6.99658728   1.70250928   1.23632956

