%chk=mol_6371.chk
# wB97XD/Def2SVP opt freq pop=full gfinput

C 4 H 2 N 2 O 1

1 2
O    0.93617964   0.08840997  -0.00000000
N    2.33612919  -0.02968999  -0.00000000
C    2.94700885   1.11637962  -0.00000000
C    2.20020914   2.34650922  -0.00000000
C    1.58825934   3.38135886  -0.00000000
C    4.38475847   1.03154957  -0.00000000
N    5.54748821   0.98827958  -0.00000000
H    0.64136976  -0.84248966  -0.00000000
H    1.03846967   4.29410839   0.00000000

