%chk=mol_4899.chk
# wB97XD/Def2SVP opt freq pop=full gfinput

C 4 H 11 N 1 O 2

1 2
C    3.03190899  -1.10382950  -0.56721979
C    2.70126891   0.07136998   0.34402987
O    3.28155875  -0.15155995   1.63360941
C    3.18439889   1.43259954  -0.21007992
N    2.84595895   2.53429914   0.73201972
C    4.70410824   1.48704946  -0.45979983
O    5.06380796   2.81343913  -0.85727972
H    2.65258908  -0.94028968  -1.57977939
H    2.58318901  -2.02249932  -0.17459995
H    4.11014843  -1.28611958  -0.61238974
H    1.61334944   0.11379996   0.48446980
H    2.95804882  -1.01122963   1.95697927
H    2.66926908   1.64961946  -1.15307951
H    3.22288871   2.25270915   1.64516938
H    1.83548927   2.53996897   0.87377971
H    5.00444794   0.80821967  -1.26223958
H    5.27574825   1.24015963   0.44111982
H    4.48015833   3.38544869  -0.31394988

