%chk=mol_3597.chk
# wB97XD/Def2SVP opt freq pop=full gfinput

C 5 H 8 O 2

1 2
O    1.02435958   0.05985998  -0.03327999
C    2.43753910  -0.01474999  -0.03385999
C    2.93700886  -1.29899955   0.62856978
C    3.24126863  -0.91745967   2.08061934
O    4.43515825  -1.53685939   2.52175903
C    3.41406870   0.56205982   2.01809931
C    2.95974874   1.05589962   0.86099970
H    0.69576979  -0.67923975  -0.57163978
H    2.80822897   0.08584997  -1.05831957
H    3.84826851  -1.65295935   0.12871996
H    2.20241928  -2.11046910   0.58301979
H    2.42319918  -1.18941951   2.75499892
H    5.17847776  -1.08242953   2.09044909
H    3.78752851   1.15610957   2.84011912
H    2.91955900   2.10669923   0.61103976

