%chk=mol_1252.chk
# wB97XD/Def2SVP opt freq pop=full gfinput

C 6 H 9 N 1

1 2
C    0.99999964   0.00000000   0.00000000
C    2.44399905   0.00000000   0.00000000
C    3.63415861   0.00000000   0.00000000
C    5.07815790   0.00000000   0.00000000
N    5.59621763   1.37327945  -0.04395999
C    5.90649796   1.93204927   1.26944959
C    7.00110769   1.47488952   0.33887988
H    0.60602981   1.02088964   0.01190000
H    0.60594976  -0.52067983   0.87815964
H    0.60591978  -0.50009978  -0.89002967
H    5.44006824  -0.52894980  -0.88999969
H    5.44856787  -0.56789976   0.86396968
H    5.68968773   1.34278953   2.15152931
H    5.73881769   2.99675894   1.37512946
H    7.57517719   2.23239923  -0.18118994
H    7.54337692   0.56856978   0.57915980

