%chk=mol_4647.chk
# wB97XD/Def2SVP opt pop=full gfinput

C 4 H 8 N 2 O 1

1 2
C    0.902552   0.539800  -0.015534
C    3.263803  -1.038461  -0.192695
C    2.985522  -3.726143  -1.184178
O    3.866380  -5.491261   0.625745
N    5.401990  -0.035206   0.497659
N    7.464777  -1.651658   0.260121
C    9.524805  -0.492047   0.864077
H    1.329366   2.413502   0.743626
H   -0.454838  -0.399753   1.226413
H    0.076269   0.743777  -1.897965
H    4.067843  -3.934712  -2.933252
H    1.000534  -4.134683  -1.586217
H    5.551864  -4.859072   1.070057
H   11.342797  -1.498987   0.780041
H    9.573542   1.501860   1.475952

