%chk=mol_5189.chk
# wB97XD/Def2SVP opt freq pop=full gfinput

C 4 H 6 N 2 O 1

1 2
C    1.09170961  -0.29088989   0.17839994
N    2.52946901  -0.08798997   0.11227996
C    2.94508886   1.10603952  -0.09301996
N    2.27118897   2.29184914  -0.27611989
O    2.93172884   3.42984867   0.20782992
C    4.39042807   1.10834956  -0.15936993
C    5.59096766   1.11070955  -0.21736991
H    0.88469964  -1.36207950   0.26403990
H    0.58915979   0.06790998  -0.72620976
H    0.66224974   0.19970992   1.05793965
H    1.30144942   2.25661922   0.02398999
H    3.62853861   3.59087873  -0.45870981
H    6.65519762   1.09448957  -0.26300991

