%chk=mol_4302.chk
# wB97XD/Def2SVP opt pop=full gfinput

C 5 H 7 N 1 O 1

1 2
C    1.948251   0.409674   0.283912
C    4.729682   0.047413  -0.333896
C    6.195505   2.429697   0.059715
O    6.959918   2.876163   2.615419
C    8.941542   2.345774   0.828664
C   10.539532   4.460736   0.286898
N   11.849263   6.150926  -0.200481
H    0.903591  -1.346184  -0.035073
H    1.111235   1.885682  -0.900511
H    1.694858   0.965763   2.260868
H    4.921395  -0.537192  -2.311041
H    5.490901  -1.488688   0.829722
H    5.508608   4.012021  -1.040937
H    9.862273   0.524871   0.972434

