%chk=mol_6958.chk
# wB97XD/Def2SVP opt pop=full gfinput

C 5 H 4 N 2

1 2
C    1.843088  -0.058959  -0.004913
C    4.109928   0.001739   0.000813
C    6.794964   0.067822   0.007710
C    8.324451   2.163623   0.006671
N   10.729582   1.213922   0.015477
C   10.549358  -1.364363   0.021259
N    8.181985  -2.113904   0.016743
H   -0.167864  -0.133056  -0.009940
H    7.931275   4.166582   0.000775
H   12.352176   2.221600   0.017423
H   12.191984  -2.581838   0.028667

