%chk=mol_4288.chk
# wB97XD/Def2SVP opt pop=full gfinput

C 4 H 2 N 2 O 1

1 2
C    1.898268  -0.000850   0.000340
C    4.168377   0.003250   0.000850
C    6.851353   0.001852   0.001493
N    8.166093   2.156537   0.003420
O   10.671076   1.291231   0.003231
C   10.538417  -1.276321   0.001228
N    8.231155  -2.176416  -0.000019
H   -0.113988  -0.003402  -0.000548
H   12.310658  -2.286777   0.000907

