%chk=mol_1550.chk
# wB97XD/Def2SVP opt freq pop=full gfinput

C 5 H 14 N 2

1 2
C    1.95820928   0.36411989  -1.77537930
C    3.29278874   0.20887993  -1.05844963
N    3.92910862   1.51785946  -0.91436964
C    5.16391802   1.47731948  -0.10304996
C    6.25962734   0.60713983  -0.72320974
C    5.70801783   2.91839910   0.09555996
N    4.67969847   3.85659838   0.56957978
H    1.48334932  -0.61373979  -1.90133929
H    2.09299922   0.80367965  -2.76900911
H    1.27318954   1.00146961  -1.20677960
H    3.92059851  -0.46530983  -1.64982939
H    3.12085867  -0.24979991  -0.07754997
H    3.28247881   2.13549924  -0.41839984
H    4.91783857   1.07748961   0.89038968
H    6.47345781   0.90899962  -1.75424933
H    5.98007774  -0.45133981  -0.72699976
H    7.18981743   0.69014972  -0.14969994
H    6.11619806   3.30280876  -0.84780967
H    6.52906752   2.90067887   0.82261974
H    4.03198862   4.01653814  -0.20229992
H    5.11992788   4.75983810   0.73922974

