%chk=mol_2988.chk
# wB97XD/Def2SVP opt freq pop=full gfinput

C 5 H 12 O 2

1 2
C    0.96993959  -0.03626999   0.04587998
C    2.50637913   0.00010000   0.00454000
C    3.05576897  -0.64462972   1.28999949
C    2.99249887  -0.79357970  -1.22808957
O    4.41186810  -0.86338973  -1.30017948
C    2.96266890   1.47181952  -0.08697996
O    4.38118839   1.58060944  -0.17719993
H    0.53822976   0.41119984  -0.85714966
H    0.58303976   0.51698983   0.90958965
H    0.59884977  -1.06540954   0.11681996
H    2.71836901  -0.09821996   2.17849922
H    4.15056849  -0.66131973   1.30884957
H    2.71029902  -1.68055940   1.38748944
H    2.63032913  -0.33697990  -2.15663910
H    2.61653900  -1.82231939  -1.20053959
H    4.73813820   0.05569998  -1.19529951
H    2.62536907   2.05394912   0.77835971
H    2.54558897   1.94581926  -0.98280966
H    4.73516798   1.48288941   0.72577971

