%chk=mol_0673.chk
# wB97XD/Def2SVP opt freq pop=full gfinput

C 5 H 8 O 1

1 2
C    0.82096964   0.06524997   0.03261999
C    2.26764917   0.07374997   0.40240985
C    3.19296885   0.84210968  -0.19624993
C    4.61943865   0.88204968   0.13597995
C    5.51682806  -0.20953992  -0.39135987
O    5.62124825   1.13841963  -0.86209965
H    0.52397978  -0.93876964  -0.28565991
H    0.59673977   0.76176971  -0.78132969
H    0.21368991   0.34552988   0.89865971
H    2.56570911  -0.59275973   1.20833957
H    2.88489914   1.50694942  -1.00129962
H    4.83077812   1.26719952   1.12861955
H    5.11180782  -0.94482964  -1.07523966
H    6.30555773  -0.57774979   0.25211990

