%chk=mol_6413.chk
# wB97XD/Def2SVP opt freq pop=full gfinput

C 4 H 4 N 2 S 1

1 2
C    1.98552918   0.32599989  -0.67842978
C    2.67166901  -0.00425000   0.67555976
C    3.36925864   1.29390955   0.53937978
N    3.83145881   2.28985929   1.27114952
S    3.61383867   3.60849857   0.18537992
N    2.67329907   2.84720874  -1.03971958
C    2.76432896   1.58471942  -0.66685975
H    0.90166968   0.47286981  -0.71052974
H    2.24526906  -0.33788988  -1.51089942
H    3.35075879  -0.86443967   0.65846980
H    2.06309915  -0.09289996   1.58049941

