%chk=mol_5718.chk
# wB97XD/Def2SVP opt pop=full gfinput

C 4 H 8 N 2 O 1

1 2
N    3.819609  -1.337624  -1.931395
C    5.907133  -0.633115  -0.291906
C    5.779198   2.132726   0.237860
C    7.653807   3.754678  -0.290942
C    7.364244   6.462863   0.301789
N    9.140208   8.068979  -0.190900
O    8.350454  10.477795   0.566238
H    3.882027  -3.235608  -2.247697
H    4.068221  -0.510188  -3.653483
H    7.701957  -1.167473  -1.174200
H    5.755180  -1.669195   1.493016
H    4.043749   2.797985   1.117414
H    9.416430   3.181505  -1.159725
H    5.564053   7.047110   1.183025
H    9.796227  11.526781   0.111097

