%chk=mol_5781.chk
# wB97XD/Def2SVP opt pop=full gfinput

C 4 H 10 N 2 O 1

1 2
N    2.220069   0.358481  -1.552486
C    4.978049   0.250729  -1.202357
C    5.906282   2.523314   0.371426
O    4.512949   2.567892   2.691140
C    8.667910   2.308641   0.976799
C   10.655618   3.026453  -0.940365
N   10.195035   4.608211   1.267137
H    1.657743  -1.192039  -2.553493
H    1.780613   1.880315  -2.654706
H    5.926975   0.193602  -3.041042
H    5.414632  -1.512159  -0.207530
H    5.496382   4.288714  -0.635194
H    2.801614   2.066226   2.201134
H    9.072726   0.778057   2.275608
H   10.072638   3.826733  -2.730843
H   12.419752   1.989164  -0.967993
H   11.518712   4.340796   2.644728

