%chk=mol_5924.chk
# wB97XD/Def2SVP opt pop=full gfinput

C 4 H 4 N 2 O 1

1 2
O    1.693894  -2.382926  -0.005820
C   -0.879781  -2.863256   0.000170
C   -2.775951  -1.223276   0.002986
C   -2.459535   1.523403  -0.004554
N   -0.520015   2.979040  -0.005499
N    1.960005   2.200492   0.002116
C    2.810231  -0.078820  -0.001304
H   -1.172991  -4.890347   0.003061
H   -4.713449  -1.891578   0.008220
H   -4.288639   2.529474  -0.010809
H    4.871034  -0.375186   0.002721

