%chk=mol_3637.chk
# wB97XD/Def2SVP opt pop=full gfinput

C 6 H 6 O 1

1 2
O    3.461052  -1.409981  -1.468884
C    3.798312   0.255056   0.115954
C    6.017247   2.088280   0.127953
C    5.198825   4.642547   1.088596
C    5.571121   6.397082  -0.708780
C    6.617330   5.210145  -2.924238
C    6.900770   2.729142  -2.496272
H    2.552283   0.355779   1.787246
H    7.537626   1.317385   1.297486
H    4.457845   5.009985   2.954228
H    5.176432   8.393729  -0.555901
H    7.079859   6.197678  -4.649388
H    7.623306   1.362360  -3.830588

