%chk=mol_0868.chk
# wB97XD/Def2SVP opt pop=full gfinput

C 4 H 6 O 2

1 2
O    1.713755  -0.041177   0.264203
C    4.427194   0.016063   0.086020
C    5.758468   2.061540   1.721635
C    7.667394  -0.014570   2.442358
O    9.796907  -0.009732   3.282152
C    5.851764  -2.102264   1.537595
H    1.180228  -1.426554  -0.822749
H    5.003503   0.126253  -1.904674
H    4.663958   2.758981   3.329584
H    6.567554   3.640368   0.668396
H    6.727859  -3.545259   0.351489
H    4.791930  -2.985748   3.076153

