%chk=mol_3748.chk
# wB97XD/Def2SVP opt pop=full gfinput

C 5 H 8 O 2

1 2
O    5.427842  -1.117905   1.951388
C    4.187293   0.058676  -0.112344
C    4.887795   2.808511  -0.139859
C    3.130369   4.645230  -0.147418
C    7.671116   3.414565  -0.248423
C    8.738661   3.705091   2.385628
O   10.086054   5.490467   3.014453
H    4.827324  -2.854753   2.001976
H    2.147901  -0.218396   0.102234
H    4.795993  -0.855214  -1.865840
H    1.122762   4.222877  -0.091406
H    3.656412   6.630293  -0.187858
H    7.998266   5.177660  -1.286053
H    8.717194   1.920982  -1.225960
H    8.385849   2.138206   3.711857

