%chk=mol_6669.chk
# wB97XD/Def2SVP opt pop=full gfinput

C 4 H 6 N 2 S 1

1 2
N    4.788906  -2.892660   1.536083
C    4.327643  -1.145703  -0.256776
S    1.952465  -1.505715  -2.269655
N    5.890975   0.862036  -0.412338
C    8.319406   1.151864   0.809653
C    9.331751   3.682944   0.334141
C   10.157977   5.761775  -0.053593
H    5.649639  -2.396721   3.164006
H    3.500926  -4.302831   1.690908
H    5.535537   2.014656  -1.900535
H    9.583066  -0.307156   0.062985
H    8.097949   0.828248   2.840107
H   10.885900   7.607830  -0.396729

