%chk=mol_6468.chk
# wB97XD/Def2SVP opt freq pop=full gfinput

C 3 H 7 N 1 O 2 S 1

1 2
C    0.99554968  -0.04044999   0.08160997
C    2.50403905   0.07465997   0.01438999
C    3.14833903   1.16286945   0.89943963
S    4.40586853  -0.00505000   1.30015957
O    4.59427786  -0.18090993   2.71724892
O    5.45717764  -0.07106998   0.31428987
N    3.16807890  -1.03727961   0.77817971
H    0.64850974  -0.92530966  -0.46229982
H    0.52403980   0.83646965  -0.37378988
H    0.63875973  -0.11580995   1.11449957
H    2.86093903   0.09809996  -1.02439964
H    2.56846905   1.47111940   1.77478933
H    3.51344872   2.04363918   0.36602986
H    3.55175853  -1.79289925   0.20610991

