%chk=mol_3786.chk
# wB97XD/Def2SVP opt pop=full gfinput

C 5 H 8 O 2

1 2
O    5.026048  -2.163453   0.746404
C    4.462569   0.061983  -0.679678
C    5.629948   2.364558   0.639748
O    4.656852   2.457022   3.172869
C    8.524252   2.271961   0.770555
C    9.709205   2.459592  -1.735902
C   10.689293   2.598052  -3.781229
H    4.330307  -3.582259  -0.197023
H    2.402295   0.246401  -0.729699
H    5.167116  -0.168564  -2.609031
H    5.017714   4.093411  -0.322123
H    4.752434   0.713882   3.785216
H    9.148826   0.546641   1.733672
H    9.190853   3.833366   1.961763
H   11.569357   2.715404  -5.587467

