%chk=mol_5869.chk
# wB97XD/Def2SVP opt pop=full gfinput

C 4 H 5 N 1 O 2

1 2
N    1.920680   0.592637  -0.206812
C    4.434923   0.453856   0.311654
O    5.403502  -1.551144   0.946904
C    5.961103   2.788593  -0.025455
C    4.967882   5.127224   0.025096
C    8.753268   2.543836  -0.297915
O   10.172944   4.343800  -0.644699
H    1.068602   2.113545  -0.979388
H    0.913494  -1.027387  -0.073850
H    2.976564   5.490014   0.324749
H    6.165968   6.786044  -0.181754
H    9.486936   0.596398  -0.179486

