%chk=mol_1937.chk
# wB97XD/Def2SVP opt freq pop=full gfinput

C 5 H 8 N 2

1 2
N    0.87358969  -0.16292994   0.01844999
C    2.16668940  -0.07894997  -0.00149000
C    2.85303903   1.27725947  -0.05597998
C    4.38983822   1.24122953  -0.03370998
C    5.02906799  -0.11679995  -0.01687999
C    4.29189825  -1.23053956   0.00804000
N    2.93093896  -1.20626962   0.01862999
H    0.46018982   0.77524972  -0.00502000
H    2.48766899   1.87413931   0.78894973
H    2.51172900   1.78510928  -0.96658963
H    4.74248838   1.79723942   0.84389973
H    4.76627827   1.78933942  -0.90633965
H    6.11297750  -0.17689994  -0.02113999
H    4.73574829  -2.22134900   0.02430999
H    2.42858887  -2.08558917   0.04843998

