%chk=mol_5054.chk
# wB97XD/Def2SVP opt pop=full gfinput

C 5 H 11 N 1 O 1

1 2
C    2.742862  -0.480255  -0.191032
N    5.461328  -0.131034  -0.461339
C    6.298684   2.103530   0.958223
C    9.121954   2.302688   0.619925
O   10.482481   0.033505   1.246104
C   10.217182   3.801997  -1.536234
C   10.478040   4.743421   1.134743
H    2.146030  -2.116021  -1.306160
H    1.692420   1.167964  -0.869425
H    2.231011  -0.847315   1.779026
H    5.871379   0.154069  -2.324722
H    5.884172   1.871736   2.974240
H    5.345204   3.814734   0.282722
H    9.384172  -1.410737   0.896259
H    8.940578   4.798393  -2.786042
H   11.890894   3.063095  -2.456531
H   12.325115   4.637898   2.013560
H    9.377993   6.377882   1.686732

