%chk=mol_0008.chk
# wB97XD/Def2SVP opt freq pop=full gfinput

C 3 H 8

1 2
C    0.98997962  -0.01335999   0.00412000
C    2.50891924   0.01650999   0.00826000
C    3.04163885   1.43935943   0.00647000
H    0.63089973  -1.04740953   0.00051000
H    0.58973980   0.48837981  -0.88272971
H    0.58539975   0.48353982   0.89176965
H    2.88676882  -0.51544982  -0.87181967
H    2.88158894  -0.51145983   0.89293963
H    2.71139908   1.98077917  -0.88593966
H    4.13605833   1.43473935   0.01520999
H    2.69702911   1.98881924   0.88849968

