%chk=mol_5613.chk
# wB97XD/Def2SVP opt freq pop=full gfinput

C 5 H 7 N 1 O 1

1 2
N    0.99999964   0.00000000   0.00000000
C    2.15100908   0.00000000   0.00000000
C    3.59500861   0.00000000   0.00000000
C    4.16866827   1.13896954   0.82859969
C    5.54491806   0.62031978   1.15839958
C    5.28518772  -0.85657966   1.36949956
O    4.15840816  -1.20873952   0.55478978
H    3.96798849   0.07013997  -1.02911961
H    3.60005856   1.28235948   1.75708926
H    4.18088865   2.09284925   0.29248989
H    6.21125746   0.76586974   0.29868987
H    6.00071812   1.10307956   2.02697921
H    6.14518785  -1.47112954   1.09150958
H    5.02570820  -1.06854963   2.41087914

