%chk=mol_2781.chk
# wB97XD/Def2SVP opt freq pop=full gfinput

C 6 H 10 O 1

1 2
C    3.13747883  -1.72155929  -1.21914959
C    2.88141894  -0.85953969  -0.01511999
C    2.24505901  -1.33919942   1.06676960
C    3.32955861   0.58415979  -0.09326996
C    4.84731817   0.72726971  -0.15892994
C    5.28349829   2.17096901  -0.17064993
O    4.52234840   3.13235879  -0.14220995
H    2.72871900  -1.25010955  -2.11843920
H    2.67274904  -2.70855904  -1.12324953
H    4.21139860  -1.87491930  -1.36176944
H    1.90481925  -2.36962891   1.11744964
H    2.03805923  -0.71396971   1.93086922
H    2.95144892   1.14450967   0.77239966
H    2.86945891   1.05196965  -0.97307962
H    5.24632835   0.26437992  -1.06788957
H    5.32001829   0.24708989   0.70496976
H    6.37533760   2.32580924  -0.21389991

