%chk=mol_4810.chk
# wB97XD/Def2SVP opt freq pop=full gfinput

C 5 H 11 N 1 O 1

1 2
C    2.10386920   4.33131838  -0.53000981
C    3.20678878   3.61380863   0.22123992
O    3.86885858   2.72969890  -0.68013972
C    4.92996788   1.98474932  -0.05005998
C    5.98762751   1.47197950  -0.98604965
C    6.29780769   2.62041903  -0.07359997
N    7.22473717   2.42801929   1.04217958
H    1.57610941   5.02937794   0.12541996
H    1.38371956   3.61309862  -0.93475962
H    2.51400924   4.88524818  -1.38045955
H    2.78365898   3.04030895   1.05343962
H    3.92552853   4.34048843   0.61607975
H    4.66737843   1.33772957   0.78074968
H    5.87549782   1.68448937  -2.04300928
H    6.42628765   0.50461984  -0.77676970
H    6.37360764   3.59731865  -0.54728979
H    7.14635754   1.49369943   1.44138944
H    7.01678753   3.07934880   1.79844928

