%chk=mol_4807.chk
# wB97XD/Def2SVP opt freq pop=full gfinput

C 4 H 10 N 2 O 1

1 2
C    1.61063945   2.16345930   1.18800950
C    2.14191914   0.86466968   0.60190982
N    3.45510864   1.04889965   0.00630000
O    3.41925859   1.72017932  -1.22644949
C    4.59356833   1.31004953   0.73125970
N    5.65734768   1.84132934   0.23362991
C    6.74209738   2.03012919   1.19104958
H    0.61493981   2.00758934   1.61452937
H    1.53625941   2.94256878   0.42263985
H    2.26526904   2.53610921   1.98242915
H    1.44531941   0.48988983  -0.15686995
H    2.19828916   0.10091996   1.38608944
H    4.36736822   1.93382931  -1.37959945
H    4.49825859   1.01596963   1.79225934
H    6.84937763   3.09362888   1.42153943
H    7.68004704   1.68342936   0.74458975
H    6.60431767   1.48369944   2.13172936

