%chk=mol_6717.chk
# wB97XD/Def2SVP opt freq pop=full gfinput

C 3 H 6 O 3 S 1

1 2
O    3.63260865  -0.84575969  -0.56244981
S    2.60310912   0.17919993   0.13705996
O    1.52017939   0.42857987  -0.78338969
O    2.40221906  -0.30256987   1.48237944
C    3.70685863   1.60563946   0.21359992
C    3.77105856   2.43465900  -1.04087961
C    3.00945878   2.93852901   0.15655994
H    3.50400877  -1.72622931  -0.14989994
H    4.59301853   1.50544941   0.82164967
H    3.20296884   2.12561917  -1.91193938
H    4.71368837   2.91205907  -1.28237951
H    3.43737888   3.75706863   0.72380972
H    1.92691922   2.97083879   0.09041996

