%chk=mol_0150.chk
# wB97XD/Def2SVP opt pop=full gfinput

C 5 H 10

1 2
C    1.830294  -0.020220   0.025001
C    4.692039   0.032711   0.039533
C    5.957929   1.985119   1.818578
C    8.016332  -0.016705   2.321963
C    6.033990  -2.036993   1.620346
H    1.137804  -1.644950  -1.054505
H    1.074933   1.694177  -0.854156
H    1.057207  -0.149704   1.939615
H    5.438934   0.143033  -1.896095
H    4.846448   2.468587   3.498904
H    6.608750   3.727787   0.920297
H    9.612300   0.077932   1.004484
H    8.739681  -0.098341   4.254643
H    6.748344  -3.656544   0.556978
H    4.945300  -2.723832   3.243432

