%chk=mol_4006.chk
# wB97XD/Def2SVP opt freq pop=full gfinput

C 5 H 9 N 1 O 1

1 2
C    0.98076963   0.00872000   0.00172000
C    2.49897909  -0.01757999   0.02184999
C    3.10717893   1.12003958   0.83103973
N    4.36733818   0.58922976   1.25024951
C    4.37677860  -0.78884971   1.26414943
O    5.27242804  -1.48036945   1.71560931
C    3.07180882  -1.27568948   0.68663973
H    0.58847976  -0.83430964  -0.57611978
H    0.61695975   0.93386966  -0.45678982
H    0.56490976  -0.05300998   1.01294959
H    2.87556887   0.03573999  -1.00880957
H    2.52498913   1.36232948   1.72618937
H    3.26370883   2.02541924   0.23871991
H    5.10885811   1.10855961   1.70412934
H    3.24549890  -2.07042933  -0.04347998
H    2.44102907  -1.64214945   1.50251949

