%chk=mol_1713.chk
# wB97XD/Def2SVP opt pop=full gfinput

C 5 H 12 N 2

1 2
C    2.539886   0.628787  -0.256341
N    4.968695   1.572177   0.637688
C    6.593424   2.253933  -1.495756
C    9.001257   3.328583  -0.459430
C   11.265640   1.647860   0.020239
N   11.238164   3.422918  -2.089810
C   12.778630   5.673241  -1.661202
H    1.334071   0.190579   1.364704
H    2.763535  -1.099027  -1.370902
H    1.556341   2.047707  -1.396205
H    5.836325   0.192374   1.664735
H    5.678003   3.697174  -2.663928
H    6.963622   0.597966  -2.684621
H    8.668118   4.918730   0.790813
H   11.148704  -0.331817  -0.491215
H   12.457755   2.050995   1.635067
H   11.959982   7.280472  -2.674170
H   14.679751   5.359528  -2.413671
H   12.969531   6.210490   0.331666

