%chk=mol_4721.chk
# wB97XD/Def2SVP opt freq pop=full gfinput

C 4 H 10 N 2 O 1

1 2
C    0.91870970  -0.04072998  -0.04794998
C    2.44006896   0.01092000   0.04634998
N    3.05340886  -0.74123973  -1.06685960
C    2.94406891   1.46799946   0.06269998
N    4.39282846   1.51179945   0.06271998
C    5.09054804   2.62016892   0.45051983
O    4.60387802   3.64791870   0.89897966
H    0.46383983   0.49326983   0.79242969
H    0.55911976  -1.07458961  -0.01856999
H    0.55749983   0.41802984  -0.97449958
H    2.75515890  -0.47583982   0.97757965
H    2.73329902  -0.34751984  -1.95304930
H    2.70165920  -1.69986939  -1.05146956
H    2.56649899   1.99973929   0.94260967
H    2.60580897   2.01008916  -0.82810968
H    4.86653805   0.75272971  -0.41581985
H    6.17701769   2.48917890   0.31783989

