%chk=mol_3485.chk
# wB97XD/Def2SVP opt pop=full gfinput

C 6 H 6 O 1

1 2
O   -0.037001   0.046997  -2.330335
C    0.046563  -2.040016  -0.529671
C    2.383909  -1.234653   0.888965
C    2.318789   1.311375   0.943521
C   -0.058298   2.056003  -0.442442
C   -2.346322   1.190357   1.019942
C   -2.281277  -1.355519   0.965480
H    0.077441  -3.844648  -1.519151
H    3.754319  -2.463655   1.755102
H    3.625534   2.570727   1.862873
H   -0.120772   3.900527  -1.353346
H   -3.685646   2.381301   1.983400
H   -3.556918  -2.653289   1.875893

