%chk=mol_5829.chk
# wB97XD/Def2SVP opt freq pop=full gfinput

C 4 H 4 N 2 O 1

1 2
N    0.97192961   0.13073994  -0.45145983
C    2.18065906   0.09537996  -0.02250999
N    2.85773873  -1.04012954   0.28808987
C    2.34627891  -2.30334926   0.18705992
O    2.99476886  -3.30170894   0.47885981
C    2.82077885   1.37266946   0.12296995
C    3.35787892   2.44035888   0.24526991
H    0.66955972   1.09743965  -0.61912978
H    3.80857849  -0.98075962   0.62001979
H    1.30708957  -2.35100913  -0.17678994
H    3.83171868   3.38895869   0.35272986

