%chk=mol_4433.chk
# wB97XD/Def2SVP opt freq pop=full gfinput

C 5 H 13 N 1 O 1

1 2
C    2.43439913  -0.98391962   1.55584943
C    2.24288917  -0.08073997   0.34484988
C    2.92616892   1.29694951   0.43257985
C    2.27176905   2.19118905   1.51018953
O    2.92344904   3.46231866   1.53267944
N    4.38200855   1.26502943   0.69899976
C    5.14178801   0.65433973  -0.38428986
H    1.89325929  -1.92446923   1.40635943
H    2.04909921  -0.52345979   2.47025895
H    3.48882866  -1.23370945   1.70960939
H    1.16726959   0.06918997   0.19148992
H    2.60096908  -0.61136973  -0.54492980
H    2.78250909   1.81246936  -0.52685976
H    2.36003923   1.75788927   2.51063895
H    1.21189952   2.35608912   1.29349947
H    3.85975862   3.25740886   1.32802951
H    4.56422853   0.75706971   1.56543946
H    4.95319796   1.15967953  -1.33701944
H    4.91969824  -0.41100985  -0.49130982
H    6.20995760   0.74849975  -0.17065994

