%chk=mol_4559.chk
# wB97XD/Def2SVP opt freq pop=full gfinput

C 5 H 11 N 1 O 1

1 2
C    2.03406930  -4.16927862   0.64182973
C    3.29554868  -3.53039885   1.14656949
C    4.15869856  -4.21188831   1.92026925
O    3.43709874  -2.22583938   0.72898972
C    4.57912827  -1.49220943   1.18775964
C    4.53037834  -0.07635997   0.59849977
N    3.38374877   0.68834972   1.09699953
H    1.97385931  -4.07944870  -0.44791985
H    1.16119957  -3.67338848   1.07857966
H    1.97851920  -5.23378801   0.89160967
H    3.95917845  -5.24134827   2.20015931
H    5.07633829  -3.78535843   2.30341911
H    5.49521780  -1.98316932   0.83755970
H    4.58252859  -1.44135940   2.28358912
H    4.45846844  -0.13727996  -0.49289981
H    5.44964790   0.45982981   0.85370970
H    2.54073906   0.13297994   0.93516964
H    3.27780890   1.53621948   0.54295981

