%chk=mol_0039.chk
# wB97XD/Def2SVP opt freq pop=full gfinput

C 3 H 6 O 1

1 2
C    0.99837959  -0.00491000  -0.00737000
C    2.50168920   0.03442999   0.00508000
C    3.22548866  -1.28472948  -0.00532000
O    3.11878896   1.09884953   0.01819999
H    0.60231978   1.01430964   0.00058000
H    0.63799977  -0.53032976   0.88066965
H    0.65215975  -0.51121980  -0.91265965
H    2.51222897  -2.11379910   0.01769999
H    3.86714864  -1.35212958   0.87739968
H    3.82385850  -1.36179948  -0.91703969

