%chk=mol_0213.chk
# wB97XD/Def2SVP opt freq pop=full gfinput

C 4 H 8 O 1

1 2
C    0.97226965  -0.00851000  -0.03978999
C    2.49436903   0.00282000   0.00152000
C    3.08913875  -0.75235975  -1.17885959
C    2.98259902   1.43350947  -0.02402999
O    3.64164853   1.93664920   0.88108969
H    0.55657983   0.54860979   0.80702966
H    0.58864981  -1.03266954   0.00636000
H    0.59305978   0.45760983  -0.95618963
H    2.83549881  -0.45736983   0.93666965
H    2.78024888  -0.31134987  -2.13311911
H    2.77459908  -1.80061936  -1.16937947
H    4.18372869  -0.72554970  -1.14484954
H    2.71166897   2.02147913  -0.91856962

