%chk=mol_5229.chk
# wB97XD/Def2SVP opt freq pop=full gfinput

C 4 H 8 N 2 O 1

1 2
C    2.36761928  -1.06698954  -0.56785977
N    3.67553878  -0.46083984  -0.34508988
N    3.68974876   0.89440966  -0.30520990
C    4.87549829   1.39131951  -0.17863993
C    4.99747801   2.85532880  -0.13111995
C    4.71285820   3.60367870   1.14337957
O    6.05395794   3.32874870   0.72114974
H    2.46969914  -2.15424919  -0.62891978
H    1.93293917  -0.71632969  -1.50898933
H    1.68129933  -0.82932973   0.25046992
H    4.08648825  -0.86835968   0.49919981
H    5.79908752   0.78851968  -0.11440996
H    4.84383821   3.37287855  -1.06998968
H    4.32587814   3.05375886   1.99183929
H    4.36131811   4.62453794   1.06754959

