%chk=mol_5763.chk
# wB97XD/Def2SVP opt pop=full gfinput

C 4 H 5 N 1 O 2

1 2
N    1.498080   0.284026   0.359331
C    4.059000   0.026399   0.060868
C    5.799003   1.833885   0.351130
C    8.513084   1.250772  -0.025795
O    9.332885  -0.824525  -0.633512
C   10.379793   3.378282   0.362355
O    9.700758   5.522309   0.882540
H    0.451985  -0.927969  -0.707419
H    0.845161   2.091039   0.302299
H    4.608721  -1.897304  -0.443311
H    5.300247   3.747516   0.878137
H   12.367917   2.816032   0.125421

