%chk=mol_5126.chk
# wB97XD/Def2SVP opt freq pop=full gfinput

C 6 H 11 N 1

1 2
C    1.34298944  -0.16349994  -0.35807985
C    2.74559903   0.11556996   0.08213997
C    3.59391856  -1.02338958   0.59110975
N    3.85935855  -0.44434983  -0.72373974
C    4.91283798   0.58809978  -0.71967971
C    4.22020817   1.90663922  -0.39165986
C    3.07357907   1.51492941   0.52532983
H    0.98409963   0.62048978  -1.03275967
H    0.67799973  -0.19780992   0.51081979
H    1.25935960  -1.12005961  -0.88477969
H    3.17884874  -2.02422929   0.58466977
H    4.30435848  -0.84428966   1.39115953
H    5.69798803   0.36087984   0.01186000
H    5.39071798   0.64087975  -1.70342934
H    4.89334822   2.63520885   0.06916998
H    3.81886864   2.34832931  -1.31238949
H    3.38788891   1.52213943   1.57491934
H    2.23138905   2.20767927   0.42013985

