%chk=mol_1562.chk
# wB97XD/Def2SVP opt freq pop=full gfinput

C 5 H 8 N 2

1 2
C    1.13506949  -0.50771981   0.07380997
C    2.46146894  -0.34561986   0.06250998
N    3.13093901   0.84856963  -0.01770999
C    4.47813845   1.13560951  -0.04363998
N    5.41747808   0.23758991  -0.03021999
C    4.98655844   2.54248905  -0.09410997
C    4.22808838   3.64497852  -0.09790996
H    0.70300972  -1.50134945   0.14270996
H    0.45087981   0.33133987   0.01552999
H    3.09452868  -1.22619963   0.12548995
H    2.51215911   1.64841938  -0.06227998
H    5.00228834  -0.69195974  -0.00217000
H    6.07020760   2.62754893  -0.12639995
H    3.14699888   3.63514876  -0.06281998
H    4.70406818   4.62101793  -0.13486995

