%chk=mol_3313.chk
# wB97XD/Def2SVP opt pop=full gfinput

C 5 H 10 O 2

1 2
C    3.606883  -1.312528  -2.365503
O    3.236988   0.761768  -0.697630
C    5.549275   1.965258   0.134605
C    7.078971   0.462151   1.982474
C    6.805868   3.733456  -1.708842
C    5.328121   4.798034   0.464816
O    6.821533   5.956020   2.414068
H    4.867330  -0.800450  -3.921805
H    1.772072  -1.843825  -3.153235
H    4.368877  -2.933120  -1.335035
H    8.766705   1.478748   2.615948
H    7.720986  -1.310374   1.132097
H    5.940921   0.007275   3.649156
H    5.998180   3.920955  -3.579670
H    8.846167   3.891248  -1.658367
H    3.492100   5.622540   0.065101
H    6.866112   7.781571   2.204895

