%chk=mol_6666.chk
# wB97XD/Def2SVP opt pop=full gfinput

C 4 H 8 N 2 S 1

1 2
N    2.213191   0.210251   0.293267
C    4.683403   0.098077  -0.389321
S    6.016435  -2.710321  -0.868915
N    5.878069   2.359285  -0.595623
C    5.171236   4.892690   0.192733
C    7.698650   5.754462  -0.931257
C    8.540126   2.986070  -0.906955
H    1.230779   1.835434   0.126309
H    1.220820  -1.424986   0.313014
H    5.003617   5.076031   2.244125
H    3.496163   5.644744  -0.749617
H    7.536776   6.566553  -2.830640
H    8.808165   7.032767   0.254149
H    9.377105   2.314688  -2.671525
H    9.694597   2.428241   0.714449

