%chk=mol_6475.chk
# wB97XD/Def2SVP opt pop=full gfinput

C 3 H 7 N 1 O 2 S 1

1 2
C    1.817614   0.139008   0.020107
C    4.674767  -0.052138   0.007672
N    5.895076   1.804896   1.731046
C    8.020905   0.076761   2.322058
S    6.068572  -2.580005   1.736432
O    4.606453  -3.282473   3.949188
O    7.271213  -4.420296   0.103727
H    0.985795  -1.424154  -1.051822
H    1.196537   1.904447  -0.864947
H    1.034531   0.077290   1.935835
H    5.426141   0.025833  -1.924232
H    4.819935   2.182690   3.297289
H    9.615361   0.208909   1.009756
H    8.713376   0.197136   4.264772

