%chk=mol_2073.chk
# wB97XD/Def2SVP opt freq pop=full gfinput

C 5 H 4 N 2

1 2
N    1.04994965  -0.28101990  -0.00000000
C    2.39446902  -0.03691998  -0.00000000
C    3.05351877   1.13798952   0.00000000
C    2.35051918   2.35561895   0.00000000
C    1.75543928   3.38632870   0.00000000
C    4.45951843   1.13798952   0.00000000
N    5.61052799   1.13798952   0.00000000
H    0.69759971  -1.23238957   0.00000000
H    0.38962984   0.49039981   0.00000000
H    2.96301866  -0.96816963  -0.00000000
H    1.22804952   4.31226873  -0.00000000

