%chk=mol_6887.chk
# wB97XD/Def2SVP opt freq pop=full gfinput

C 5 H 10 N 2

1 2
C    1.04829967  -0.07208998  -0.00251000
C    2.57387900  -0.00336000   0.00150000
N    3.14359879  -1.09569955  -0.79174972
N    3.39383888  -0.72363973  -2.07201910
C    3.39773893   0.56940979  -2.07013917
C    3.10315871   1.21809947  -0.75075966
C    4.39327860   1.78027928  -0.17322993
H    0.62718982   0.77362972   0.55189979
H    0.69858974  -0.99422961   0.47535983
H    0.63720971  -0.04307998  -1.01825964
H    2.93417883  -0.04472998   1.03464961
H    2.61108899  -1.96503925  -0.73778975
H    3.60839868   1.17690957  -2.96166873
H    2.35579920   2.00633931  -0.88093966
H    5.17915821   1.01889968  -0.10512996
H    4.22309828   2.18462920   0.83001971
H    4.77853823   2.58821893  -0.80564970

