%chk=mol_4561.chk
# wB97XD/Def2SVP opt freq pop=full gfinput

C 5 H 8 N 2

1 2
C   -1.46947944   0.68985975   0.14779994
C   -1.44705951  -0.78514975  -0.22816992
C   -0.26316988  -1.52453947   0.30833986
C    0.99016964  -1.07465959   0.43986985
N    1.56467938   0.10552996   0.07292997
C    0.90874964   1.12894964  -0.34545988
N   -0.41709986   1.42072952  -0.52031982
H   -2.43228912   1.11607957  -0.15677994
H   -1.39030945   0.82433969   1.23326957
H   -1.49110949  -0.91644967  -1.31692946
H   -2.34997916  -1.25090957   0.18300994
H   -0.46031982  -2.54480886   0.62952977
H    1.71436942  -1.77130926   0.86337966
H    1.52548945   1.99514925  -0.64680976
H   -0.62111980   2.40550900  -0.65140975

