%chk=mol_0506.chk
# wB97XD/Def2SVP opt freq pop=full gfinput

C 4 H 8 N 2

1 2
C    0.69517976   1.07060957   0.47795981
N    2.03143930   0.65622979   0.11637995
C    3.12835884   1.48197949   0.12501995
N    3.03425884   2.77116895   0.02042999
C    4.52215815   0.96303964   0.25033993
C    4.85789824  -0.33050990   0.31844988
H    0.02162999   0.20916992   0.44391984
H    0.30992988   1.82020938  -0.21873991
H    0.67875975   1.47696948   1.49355948
H    2.22188902  -0.30779988   0.36013985
H    2.05647922   3.03295898  -0.09805997
H    5.28976822   1.73073936   0.27841988
H    4.13978863  -1.13860965   0.27945989
H    5.90399790  -0.60885978   0.40573984

