%chk=mol_2312.chk
# wB97XD/Def2SVP opt pop=full gfinput

C 6 H 10 O 1

1 2
C    1.754100  -0.025795   0.325203
C    4.599235   0.016781  -0.120602
C    5.258636   0.026551  -2.926902
C    6.039092   2.033591   1.489274
C    7.866061   0.007446   2.535389
C    6.085164  -2.002713   1.419657
O    5.927447  -4.275770   1.647728
H    1.301983  -0.084376   2.344716
H    0.891214  -1.687299  -0.557961
H    0.858030   1.660729  -0.473017
H    7.307514   0.043369  -3.225574
H    4.474040   1.697730  -3.862355
H    4.500685  -1.652565  -3.870651
H    4.893843   2.928036   2.967701
H    6.961222   3.539722   0.410316
H    9.738534  -0.003685   1.661069
H    8.038196  -0.046657   4.590447

