%chk=mol_7075.chk
# wB97XD/Def2SVP opt freq pop=full gfinput

C 7 H 10

1 2
C    1.06722963  -0.12777995  -0.04824998
C    2.52171922   0.17065994   0.05935998
C    3.11150885   1.34731948  -0.22609991
C    4.60174799   1.23793960  -0.02640999
C    4.83339834  -0.19392993   0.41250986
C    4.52456856  -1.36502945  -0.48555982
C    3.47816873  -0.87319964   0.47619981
H    0.90848970  -1.13311946  -0.45583984
H    0.56116980   0.58108974  -0.70826977
H    0.59625977  -0.07882997   0.93974960
H    2.60855889   2.24301934  -0.55850977
H    5.13891792   1.45331943  -0.95433968
H    4.92976809   1.93547928   0.75014973
H    5.52727795  -0.31263989   1.23102963
H    5.00490808  -2.31123900  -0.26641989
H    4.38364840  -1.18348956  -1.54580939
H    3.23785877  -1.45622945   1.35535955

