%chk=mol_4554.chk
# wB97XD/Def2SVP opt pop=full gfinput

C 5 H 5 N 1 O 1

1 2
C    3.848484  -2.141551  -0.544052
C    6.009159  -0.835505  -0.385693
C    5.982948   1.953051   0.074134
O    3.980859   3.091422   0.396805
C    8.491768   3.292413   0.271157
C    9.970289   2.999430  -2.041584
N   11.174479   2.720393  -3.853454
H    3.861202  -4.163464  -0.882351
H    2.017056  -1.229154  -0.348919
H    7.820178  -1.771146  -0.589406
H    9.506721   2.547067   1.913404
H    8.135800   5.300285   0.629959

