%chk=mol_4040.chk
# wB97XD/Def2SVP opt freq pop=full gfinput

C 5 H 7 N 1 O 1

1 2
C    0.90616965  -0.01759999   0.12402996
C    2.41991901   0.00195000  -0.04432998
C    3.14529872   1.02407956   0.84507966
O    3.74839854  -0.02025999   1.64235938
C    3.16651893  -1.04262960   0.80125970
C    2.81229901   0.03506999  -1.43441939
N    3.11779881   0.06190998  -2.55522895
H    0.61880976  -0.04321998   1.18154955
H    0.46592984  -0.89891964  -0.35685986
H    0.44770986   0.87414968  -0.31888989
H    2.50563908   1.66662943   1.45854950
H    3.90889859   1.64284933   0.36254987
H    3.94280839  -1.62488937   0.29295987
H    2.54009891  -1.72401941   1.38681948

