%chk=mol_1774.chk
# wB97XD/Def2SVP opt freq pop=full gfinput

C 5 H 10 N 2

1 2
C    1.02161968  -0.19163993   0.01364999
N    2.46441889  -0.01472999   0.00360000
C    2.96069884   1.38567948   0.00000000
C    2.48157907   2.13864923  -1.25765955
C    2.48179913   2.14063907   1.25564957
C    4.40469837   1.38567948   0.00000000
N    5.55570793   1.38567948   0.00000000
H    0.79834968  -1.26437950   0.03274999
H    0.54535979   0.21851991  -0.88061965
H    0.55757982   0.23849991   0.90451962
H    2.85557890  -0.50673980  -0.80118966
H    2.76299906   1.60602939  -2.17428923
H    2.93163896   3.13759899  -1.31593943
H    1.39532948   2.27693915  -1.26697946
H    2.75494885   1.60417938   2.17251921
H    1.39688945   2.28896904   1.26054955
H    2.93987894   3.13571882   1.31769943

