%chk=mol_5276.chk
# wB97XD/Def2SVP opt freq pop=full gfinput

C 5 H 11 N 1 O 1

1 2
C    1.85068929  -0.20832993  -1.50834954
O    2.15895915   0.22358991  -0.19050993
C    3.01181889   1.36391950  -0.16299994
C    2.30514908   2.63855910  -0.60741979
C    2.98892879   3.71515870   0.21040992
N    3.12653875   3.09222889   1.52127945
C    3.45891857   1.68113935   1.27305949
H    1.24114943  -1.11367953  -1.43828940
H    2.76561904  -0.44789982  -2.05907917
H    1.27578950   0.55220979  -2.04460907
H    3.90056849   1.18104959  -0.78015971
H    1.23126960   2.59185886  -0.38123986
H    2.40986896   2.81111884  -1.68348932
H    3.97351837   3.95539856  -0.20637992
H    2.39570928   4.63208818   0.26004991
H    3.84787869   3.54556870   2.07804918
H    4.54256821   1.53807938   1.36055946
H    2.97254872   1.04118967   2.01656914

