%chk=mol_1848.chk
# wB97XD/Def2SVP opt freq pop=full gfinput

C 5 H 8 N 2

1 2
C    2.97113872  -0.90350968   0.16395994
N    3.03241897   0.23181991   0.77602971
N    3.20475864   1.28141952  -0.06839997
C    4.56871843   1.56115937  -0.58228976
C    4.59204865   3.02950883  -0.83793968
C    3.51798868   3.60809851  -0.29843989
C    2.66467905   2.58759904   0.37539989
H    2.83542895  -1.82739925   0.74745971
H    3.03968883  -1.01435959  -0.93254966
H    4.74396801   0.99751961  -1.50363946
H    5.33783817   1.30081952   0.15388994
H    5.38826799   3.54157877  -1.35660946
H    3.30062866   4.66543865  -0.30779988
H    2.73481894   2.70666885   1.46278942
H    1.61844945   2.68016911   0.06869998

