%chk=mol_1826.chk
# wB97XD/Def2SVP opt freq pop=full gfinput

C 5 H 10 N 2

1 2
C    1.02923965  -0.25169992  -0.04836998
N    2.49312901  -0.37617987  -0.02453999
C    2.83596897  -1.80699933   0.00646000
N    3.11676884   0.34317988  -0.99879962
C    4.24784851   0.84155971  -0.61196983
C    5.08012819   1.64832938  -1.52685940
C    6.25232744   2.14241910  -1.11539960
H    0.74190974   0.80447972   0.00246000
H    0.57757974  -0.74657971   0.81844968
H    0.60159981  -0.67702973  -0.96333963
H    2.37858891  -2.30136919   0.87058967
H    3.91952872  -1.93710923   0.10410997
H    2.51356912  -2.31819916  -0.90762967
H    4.64342833   0.69147974   0.40986985
H    4.69573832   1.81247926  -2.52670908
H    6.63367748   1.97516930  -0.11303996
H    6.86309719   2.73519897  -1.78924930

