%chk=mol_7021.chk
# wB97XD/Def2SVP opt pop=full gfinput

C 6 H 13 N 1

1 2
C    2.380715  -0.690752  -1.159933
C    5.235505  -0.395671  -1.082246
C    6.055382   1.475328   0.959622
C    8.868220   1.814175   0.979955
C   10.235437   2.344621   3.436561
N   10.437997  -0.106883   2.187812
C   12.845432  -0.499096   0.900228
H    1.841481  -2.062844  -2.612754
H    1.460909   1.107776  -1.603867
H    1.653416  -1.362625   0.656472
H    5.911214   0.239428  -2.935198
H    6.102209  -2.244277  -0.732401
H    5.376951   0.825961   2.810590
H    5.174750   3.319550   0.613878
H    9.560163   2.716897  -0.724899
H    9.161638   2.359418   5.178549
H   11.852192   3.598511   3.409519
H   12.571214  -1.758711  -0.719079
H   14.176272  -1.417143   2.190079
H   13.735814   1.240038   0.205753

