%chk=mol_3060.chk
# wB97XD/Def2SVP opt pop=full gfinput

C 6 H 12 O 1

1 2
C    1.481035  -0.074984  -0.130070
C    4.331536  -0.447941   0.195247
C    4.849472  -1.858376   2.670240
O    5.214964  -2.046611  -1.802213
C    5.822983   2.070819   0.181603
C    5.477295   3.658113  -2.162999
C    7.335048   4.181926  -3.801846
H    1.022455   0.701844  -1.991922
H    0.710008   1.180040   1.322279
H    0.488645  -1.889877  -0.015704
H    4.216338  -0.773465   4.313678
H    6.871554  -2.253309   2.882985
H    3.894556  -3.696266   2.688872
H    5.110027  -1.082378  -3.366075
H    7.841759   1.651753   0.417781
H    5.258749   3.221605   1.811718
H    3.611153   4.454822  -2.493739
H    9.237397   3.461733  -3.543463
H    6.987432   5.362986  -5.443829

