%chk=mol_3723.chk
# wB97XD/Def2SVP opt freq pop=full gfinput

C 6 H 8 O 1

1 2
O    1.36421955  -0.35251987  -0.92000967
C    2.47024918  -0.28320989  -0.03577999
C    2.83633900   1.15413964   0.11391996
C    4.05325842   1.66043937  -0.14817993
C    4.41150856   3.11074877  -0.00696000
C    5.50478792   3.25965881   0.96402961
C    6.39854765   3.38746881   1.75539935
H    1.15812957  -1.29489958  -1.03411961
H    3.29066896  -0.87974966  -0.44681984
H    2.17514920  -0.69928974   0.93213964
H    2.03985929   1.80965936   0.45851985
H    4.84354782   1.00280964  -0.50480980
H    3.54707861   3.70397878   0.31219989
H    4.72360849   3.49600863  -0.98402965
H    7.19142723   3.49949884   2.45899916

