%chk=mol_5688.chk
# wB97XD/Def2SVP opt pop=full gfinput

C 5 H 11 N 1 O 1

1 2
N    2.330750  -0.685045  -0.948246
C    5.071987  -0.470221  -1.102939
C    6.047369   1.482263   0.784595
C    8.915369   1.649693   0.632265
C   10.066741   3.004608  -1.662865
C   11.381405   4.658534   0.296970
O    9.866053   3.605276   2.314045
H    1.698939  -1.908567  -2.294468
H    1.514823   1.017126  -1.333107
H    5.610332   0.056805  -3.030932
H    5.918415  -2.319034  -0.713863
H    5.492073   0.935074   2.705974
H    5.193950   3.334667   0.409315
H    9.837971  -0.154712   1.075538
H    8.726170   4.018956  -2.865241
H   11.323503   1.851780  -2.826596
H   13.390656   4.269080   0.587327
H   11.076177   6.690783   0.086644

