%chk=mol_1861.chk
# wB97XD/Def2SVP opt pop=full gfinput

C 5 H 10 N 2

1 2
C    9.011065  -3.256962  -0.615635
N    7.985397  -0.894918   0.372408
N    8.877310   1.227585  -0.749182
C    8.494791   3.247551   0.581563
C    9.296848   5.803028  -0.269210
C   10.515003   6.028302  -2.807509
C    8.883754   7.756097   1.292781
H    8.214167  -4.855443   0.426360
H   11.066766  -3.310611  -0.387205
H    8.552617  -3.487584  -2.619576
H    6.059256  -0.971867   0.214219
H    7.554445   3.161984   2.447536
H    9.233542   5.363818  -4.289867
H   12.252682   4.907978  -2.884100
H   11.013872   7.988666  -3.246020
H    8.001592   7.526515   3.130520
H    9.438048   9.660810   0.767493

