%chk=mol_0341.chk
# wB97XD/Def2SVP opt freq pop=full gfinput

C 5 H 11 N 1

1 2
C    0.87392962   1.06554961  -1.22065949
C    2.35854912   0.89287966  -1.20597959
C    3.14780879   1.32093954  -0.20585991
C    4.64259863   1.19463956  -0.09243996
C    5.34820795   0.47814983  -1.24549949
N    5.19341803   2.54068923   0.06264998
H    0.57558984   1.65082932  -2.09567928
H    0.50522977   1.57698941  -0.32594988
H    0.38603985   0.08662996  -1.27889955
H    2.78223896   0.39270985  -2.07214928
H    2.67913914   1.81552935   0.64519972
H    4.85355806   0.63767976   0.82862967
H    5.20323801   0.99774963  -2.19973922
H    4.97635794  -0.54660982  -1.35525942
H    6.42660761   0.41461983  -1.06226957
H    5.03525829   3.05953884  -0.80059969
H    6.20442772   2.47993922   0.16878994

