%chk=mol_6653.chk
# wB97XD/Def2SVP opt freq pop=full gfinput

C 5 H 3 N 1 S 1

1 2
N    0.86678970   0.04134998  -0.02576999
C    2.02712917   0.03407999  -0.01545999
C    3.45907879   0.02362999  -0.00273000
C    4.21833849   1.17410958   0.00450000
S    5.89779758   0.83675969   0.01930999
C    5.61517811  -0.85140973   0.01610000
C    4.26968813  -1.15096951   0.00399000
H    3.87629843   2.20104933   0.00188000
H    6.44874763  -1.54119945   0.02322999
H    3.88909841  -2.16605926   0.00018000

