%chk=mol_2867.chk
# wB97XD/Def2SVP opt pop=full gfinput

C 6 H 12 O 1

1 2
C    1.601089  -1.443448   0.967124
C    4.351264  -1.604982   0.152255
C    5.632367   0.980900   0.242320
C    8.395278   0.815455  -0.574571
C    9.716216   3.365300  -0.504425
C   12.453768   3.379737  -1.280762
O    8.650883   5.317009   0.173156
H    0.720458  -3.314107   0.894540
H    0.531693  -0.182170  -0.276561
H    1.441426  -0.733932   2.904263
H    4.446677  -2.371890  -1.769237
H    5.350495  -2.929302   1.392331
H    5.518454   1.749830   2.164757
H    4.619152   2.305693  -0.989479
H    8.515257   0.091047  -2.509859
H    9.427107  -0.469540   0.677939
H   13.565682   2.308527   0.089290
H   13.148790   5.325116  -1.342688
H   12.647521   2.550034  -3.162381

