%chk=mol_0566.chk
# wB97XD/Def2SVP opt pop=full gfinput

C 4 H 10 N 2

1 2
N    0.889891   0.381668   0.035376
C    3.470784  -0.031218  -0.884278
C    5.459910   0.875605   1.033453
N    8.024514   0.505615   0.026626
C    9.939109   0.279963   1.999122
C    9.059215  -1.999557   0.539082
H   -0.350884  -0.237255  -1.302928
H    0.578540   2.275854   0.209627
H    3.708814   0.961890  -2.686945
H    3.716203  -2.054359  -1.249279
H    5.157195  -0.084055   2.849216
H    5.196501   2.902808   1.381276
H    9.371416   0.467840   3.956992
H   11.781762   1.054146   1.549840
H   10.299726  -2.758509  -0.901607
H    7.875868  -3.378093   1.485155

