%chk=mol_4073.chk
# wB97XD/Def2SVP opt freq pop=full gfinput

C 4 H 6 N 2 O 1

1 2
C    1.04102957  -0.05065998   0.20750993
C    2.36286902  -0.00369000   0.02752999
C    3.27585888   1.17375958   0.00580000
O    4.59260798   0.71409976  -0.39627984
N    4.46871853  -0.65396976  -0.70569974
C    3.26667881  -1.12356949  -0.27426988
N    3.01657891  -2.37426901  -0.09693996
H    0.48392981  -0.98005962   0.15211993
H    0.47194982   0.85495967   0.39359987
H    3.37228870   1.62002945   1.00021958
H    2.94689894   1.93305933  -0.71027976
H    5.26879787  -1.23875952  -0.48358980
H    2.07074928  -2.50270891   0.26942989

