%chk=mol_4734.chk
# wB97XD/Def2SVP opt freq pop=full gfinput

C 5 H 11 N 1 O 1

1 2
C    0.95091963   0.10125996  -0.04662998
C    2.47306919  -0.11497996  -0.02900999
N    2.76288915  -1.07270968   1.05691957
C    2.93344879  -0.76794970  -1.36306953
O    2.42387915  -2.10048914  -1.47332942
C    3.16677880   1.21932948   0.15988994
C    3.96682858   1.60969937   1.16365957
H    0.65385973   0.75426972  -0.87616962
H    0.59979981   0.56934977   0.88137966
H    0.40703985  -0.84342968  -0.16504994
H    2.44161916  -0.67280978   1.93832922
H    3.77401853  -1.17918956   1.13878953
H    4.02681875  -0.83235973  -1.41354954
H    2.58732915  -0.19826992  -2.23223925
H    2.39398909  -2.42254925  -0.54776978
H    2.97688890   1.94642925  -0.63107979
H    4.21888828   0.97085959   2.00265932
H    4.39485836   2.60860896   1.16562951

