%chk=mol_0359.chk
# wB97XD/Def2SVP opt pop=full gfinput

C 5 H 7 N 1

1 2
C    1.650166  -0.420615  -0.179524
C    4.476591  -0.072754   0.209042
C    5.199770   2.668652   0.157074
C    6.246263   3.890096   2.118478
C    6.917910   6.489584   1.996666
N    7.469010   8.609460   1.906620
H    1.168493  -2.432380  -0.159039
H    1.040615   0.362544  -1.996042
H    0.569979   0.511454   1.319369
H    5.504848  -1.060836  -1.293763
H    5.031453  -0.953801   1.999840
H    4.850039   3.675328  -1.607174
H    6.617934   2.924597   3.885277

