%chk=mol_6421.chk
# wB97XD/Def2SVP opt freq pop=full gfinput

C 6 H 8 S 1

1 2
C    0.81377965   0.14978994  -0.00794000
C    2.30128908   0.07251997  -0.00054000
C    3.21532893   1.10490966   0.00439000
C    4.55976820   0.63360977   0.01106000
C    4.63106823  -0.74411970   0.01092000
C    5.85312796  -1.59736943   0.01679999
S    3.07501888  -1.45301938   0.00217000
H    0.47616982   1.19157946   0.00079000
H    0.39415985  -0.34501988   0.87419969
H    0.40449986  -0.32706988  -0.90467966
H    2.93595910   2.15163922   0.00341000
H    5.43182802   1.27647948   0.01582999
H    5.61776781  -2.66641903   0.02687999
H    6.46081781  -1.37895942   0.90108961
H    6.45823765  -1.39462948  -0.87294966

