%chk=mol_6271.chk
# wB97XD/Def2SVP opt pop=full gfinput

C 4 H 7 N 1 O 2

1 2
O    1.107625   0.067123   0.354985
C    3.717885   0.099853  -0.280322
C    4.618037   2.719108  -1.079071
O    3.150873   4.510569  -1.310487
N    7.210571   2.789746  -1.531869
C    8.680740   4.936135  -0.764772
C    8.212618   4.396618  -3.475433
H    0.386789   1.611785  -0.363753
H    4.025003  -1.222936  -1.839743
H    4.792251  -0.523019   1.371771
H   10.482840   4.437795   0.054632
H    7.639237   6.442001   0.144791
H    6.843983   5.529830  -4.488855
H    9.679971   3.514173  -4.589465

