%chk=mol_0257.chk
# wB97XD/Def2SVP opt freq pop=full gfinput

C 5 H 11 N 1

1 2
C    0.89050967   0.03546999  -0.24499990
C    2.37237906   0.03582999   0.03318999
C    2.71121883   0.00871000   1.50206947
C    3.26884890  -0.73565972  -0.91035968
C    3.26232886   0.76618969  -0.95369965
N    4.44802856   1.50096941  -0.52833980
H    0.67326975   0.04638998  -1.31891954
H    0.42057985   0.91779965   0.20131993
H    0.42244986  -0.85800970   0.18116994
H    3.78448844  -0.09955996   1.68725944
H    2.21211934  -0.83604968   1.98904920
H    2.37330890   0.93061966   1.98583925
H    2.81805897  -1.26226950  -1.74409926
H    4.14111853  -1.23956954  -0.51059979
H    2.77175903   1.21367955  -1.81698930
H    4.96852827   1.00340962   0.19110993
H    4.18743849   2.39809895  -0.12125996

