%chk=mol_0669.chk
# wB97XD/Def2SVP opt pop=full gfinput

C 5 H 10 O 1

1 2
C    2.331601  -0.466649  -0.714354
C    5.167494  -0.450756  -0.258439
C    6.058405   2.082006   0.803304
C    8.849739   2.075656   1.248107
C   10.664840   3.093765  -0.692433
O    9.937597   4.544243   1.481205
H    1.734693  -2.303519  -1.454050
H    1.794200   0.983754  -2.087977
H    1.295974  -0.114404   1.041428
H    6.151493  -0.856613  -2.036048
H    5.657009  -1.976181   1.056697
H    5.099974   2.461935   2.600036
H    5.531569   3.608092  -0.498340
H    9.478621   0.638406   2.558954
H    9.945005   3.694868  -2.510577
H   12.568549   2.345169  -0.728754

