%chk=mol_0124.chk
# wB97XD/Def2SVP opt freq pop=full gfinput

C 5 H 10

1 2
C    0.92709965  -0.11956995   0.00579000
C    2.41738892   0.00483000   0.00143000
C    3.11229897   1.15876961   0.00017000
C    2.48381901   2.52473903   0.00423000
C    4.61783838   1.15823960  -0.00479000
H    0.64441979  -1.17698956  -0.00603000
H    0.49129981   0.34859985  -0.88144970
H    0.49923980   0.32717988   0.90780967
H    2.95981884  -0.93919969  -0.00092000
H    1.39065957   2.49265909   0.00473000
H    2.79626894   3.08594871  -0.88249969
H    2.79721904   3.08081889   0.89384967
H    5.03205824   0.14483994  -0.00403000
H    4.99954844   1.67458940   0.88164967
H    4.99352837   1.67095935  -0.89588964

