%chk=mol_0308.chk
# wB97XD/Def2SVP opt pop=full gfinput

C 5 H 11 N 1

1 2
C    4.456843  -0.937909  -2.728651
C    4.678225   0.106921  -0.060963
C    6.158920   2.570538  -0.073907
C    4.823715   4.956752  -1.109118
C    6.045725   6.297588   1.160689
N    6.137453   3.816793   2.446893
H    3.425809  -2.730484  -2.716047
H    6.325764  -1.271408  -3.551740
H    3.446671   0.378814  -3.964097
H    5.642042  -1.288963   1.128507
H    2.780090   0.377227   0.725598
H    8.083096   2.333396  -0.820462
H    2.753388   4.901855  -1.037932
H    5.426821   5.602036  -2.975922
H    7.913247   7.102026   0.765944
H    4.877270   7.720249   2.097010
H    7.713862   3.515930   3.509202

