%chk=mol_5354.chk
# wB97XD/Def2SVP opt freq pop=full gfinput

C 4 H 8 N 2 O 1

1 2
C    4.39883852  -0.50694978  -0.83488971
O    3.20967889  -0.01523999  -0.22703990
C    3.19671893   1.30062950   0.15318994
C    4.15626812   2.22566915   0.01875999
C    3.95950842   3.61976862   0.49866980
N    2.77782917   4.09903860   0.97237962
N    4.93353796   4.47482824   0.47022980
H    4.24118853  -1.56141937  -1.07995963
H    5.24514771  -0.44308984  -0.14298995
H    4.61431837   0.02826999  -1.76535928
H    2.23880911   1.50471950   0.61938977
H    5.11580801   2.00399923  -0.42845985
H    1.94333935   3.77777839   0.49932981
H    2.81130886   5.11063814   1.05578959
H    5.79121780   4.04682827   0.11147996

