%chk=mol_3427.chk
# wB97XD/Def2SVP opt freq pop=full gfinput

C 5 H 8 O 2

1 2
C    4.27806854  -0.41884983   1.52624953
O    3.94489861   0.92234969   1.86364925
C    3.16599894   1.56157935   0.85863972
C    2.51345897   2.80879903   1.40520942
C    2.65887904   3.31358862   2.64120913
C    4.02644825   1.98467922  -0.32163987
O    3.65268850   1.93262923  -1.49396956
H    4.80443811  -0.86437964   2.37461901
H    4.94244814  -0.44254982   0.65644974
H    3.37648869  -1.00784957   1.32890952
H    2.37136912   0.88602966   0.50756985
H    1.86287928   3.33844876   0.70888972
H    3.28722882   2.83010888   3.38622880
H    2.14169908   4.22150850   2.93657899
H    5.01074839   2.40857911  -0.05853998

