%chk=mol_5849.chk
# wB97XD/Def2SVP opt freq pop=full gfinput

C 6 H 9 N 1

1 2
C    0.95642966   0.06818998   0.00069000
C    2.44074917   0.03710999  -0.01885999
C    3.28015876   1.08898962   0.00185000
C    4.64089823   0.61295974   0.00827000
C    4.64110804  -0.72832972  -0.00497000
C    3.23336864  -1.24452960  -0.01420000
N    3.00235891  -2.05677915  -1.19236958
H    0.57853973   1.09422958   0.05756998
H    0.57570982  -0.47828981   0.86904967
H    0.54715979  -0.38887987  -0.90518963
H    3.00564885   2.13278913   0.01970999
H    5.51014805   1.25212955   0.01970999
H    5.51733828  -1.35840940  -0.00273000
H    3.03664875  -1.82187927   0.89567965
H    3.14790893  -1.47152948  -2.01362920
H    2.02532935  -2.33597922  -1.21333957

