%chk=mol_3561.chk
# wB97XD/Def2SVP opt pop=full gfinput

C 5 H 8 O 2

1 2
O    1.887062  -0.045920   0.068673
C    4.593301  -0.031521   0.008353
C    5.512085  -2.342882  -1.493281
C    6.164891  -1.271616  -4.031220
C    6.223397   1.254268  -3.998377
C    5.601507   2.292200  -1.448116
O    7.840701   3.259400  -0.328623
H    1.359960   1.474326   0.959263
H    5.266365  -0.105031   1.964314
H    4.056940  -3.803017  -1.651999
H    7.215995  -3.156806  -0.645701
H    6.567554  -2.426238  -5.668649
H    6.673360   2.434383  -5.603907
H    4.195192   3.802998  -1.566186
H    9.213889   2.119366  -0.769969

