%chk=mol_5452.chk
# wB97XD/Def2SVP opt freq pop=full gfinput

C 4 H 10 N 2 O 1

1 2
C    3.55890870   1.11613953  -0.49165982
O    3.35761857   1.82531929  -1.71464932
N    3.47404861   3.19677877  -1.41676950
C    2.18227911   3.86572862  -1.41886938
C    4.59879827   3.77398849  -1.98673928
C    4.77070808   5.27351809  -1.94912934
N    5.53727770   3.08030891  -2.55652905
H    3.70274854   0.05917998  -0.73249972
H    2.67440915   1.21252954   0.14519994
H    4.44764853   1.47416949   0.03747999
H    1.44223940   3.27383900  -0.87020963
H    1.82245922   4.00473881  -2.44310904
H    2.24555922   4.84221840  -0.92953968
H    4.61112833   5.63711786  -0.93018967
H    4.04418850   5.74117756  -2.61950922
H    5.77787781   5.55364799  -2.26957917
H    5.22366810   2.10284925  -2.50106907

