%chk=mol_3666.chk
# wB97XD/Def2SVP opt freq pop=full gfinput

C 5 H 6 O 2

1 2
O    1.02022958  -0.08073997   0.34700987
C    2.21549916  -0.00334000   0.08705997
C    2.90336895   1.28233957  -0.01007000
C    4.19123840   1.45106936  -0.27848992
O    4.62645817   2.75843883  -0.30820990
C    3.40896869   3.53113866  -0.18212993
C    2.26402903   2.59344912   0.20212993
H    2.83508873  -0.89770967  -0.08815997
H    4.95805788   0.71550971  -0.45650983
H    3.21520877   4.01686859  -1.14591956
H    3.56122851   4.31290865   0.56956977
H    1.38665950   2.75740886  -0.43036982
H    1.97547925   2.73087907   1.24939954

