%chk=mol_5680.chk
# wB97XD/Def2SVP opt pop=full gfinput

C 5 H 11 N 1 O 1

1 2
N    3.784951  -0.891970  -2.520460
C    4.346937   0.065555   0.017782
C    5.996687   2.450691  -0.128312
O    8.317932   1.851176  -1.470490
C    4.597590   4.876646  -1.034455
C    5.975125   6.339842   1.068224
C    6.366374   3.809442   2.449954
H    3.103025  -2.685339  -2.379619
H    5.475255  -1.038404  -3.450659
H    5.346715  -1.399720   1.085024
H    2.567193   0.448564   1.002462
H    9.168252   3.461109  -1.717629
H    2.540302   4.824565  -0.800412
H    5.030168   5.500955  -2.956836
H    7.739600   7.226502   0.444917
H    4.840364   7.742095   2.073691
H    8.221442   3.576930   3.331511
H    4.905993   3.397180   3.860465

