%chk=mol_7012.chk
# wB97XD/Def2SVP opt pop=full gfinput

C 6 H 11 N 1

1 2
C    4.656909   6.440281  -0.986021
C    5.417637   4.057563  -1.367387
C    6.124924   2.258884   0.714751
C    8.865291   1.439782   0.364831
C   10.960979   3.332891   1.133325
C   12.284599   1.001271   2.249417
N    9.766067  -0.196532   2.477072
H    4.148025   7.647212  -2.566173
H    4.517258   7.238823   0.899377
H    5.504772   3.338522  -3.292753
H    4.872791   0.612158   0.606262
H    5.836400   3.124549   2.575678
H    9.206122   0.566370  -1.491126
H   10.397633   4.735899   2.550091
H   11.947246   4.280948  -0.413226
H   13.552454   0.030632   0.929122
H   13.270054   1.298336   4.040235
H    9.736776  -2.084444   2.101602

