%chk=mol_2872.chk
# wB97XD/Def2SVP opt freq pop=full gfinput

C 6 H 12 O 1

1 2
C    1.79271936  -0.53243977  -1.08715963
C    1.72158933   0.24997991   0.21677992
C    2.28548908   1.64913940   0.10089996
C    1.50805938   2.72987914   0.29414991
C    3.75348854   1.78092933  -0.22075993
O    4.50229836   1.08379960   0.77058971
C    5.89438772   1.11702967   0.49183980
H    1.28588963  -1.49658942  -0.97482967
H    2.82916880  -0.73671973  -1.37602949
H    1.30847955   0.01158000  -1.90536928
H    2.25450921  -0.29728988   1.00244963
H    0.67249978   0.29007989   0.53456980
H    0.45383981   2.63501883   0.53679979
H    1.90603936   3.73790860   0.22761992
H    4.06287861   2.83301902  -0.22936992
H    3.95694852   1.35956955  -1.21175957
H    6.41975737   0.59228981   1.29447961
H    6.25580788   2.14951921   0.45461985
H    6.10680771   0.60910976  -0.45415983

