%chk=mol_4414.chk
# wB97XD/Def2SVP opt pop=full gfinput

C 5 H 3 N 1 O 1

1 2
C    1.889726   0.000000   0.000000
C    4.618491   0.000000   0.000000
C    6.867567   0.000000   0.000000
C    9.603078  -0.014078   0.000000
O   10.740485  -2.031682   0.000000
C   10.946806   2.376028   0.000000
N   11.985985   4.313356   0.000000
H    1.145117   1.929165   0.022072
H    1.145042  -0.983659   1.659652
H    1.145042  -0.945430  -1.681724

