%chk=mol_1797.chk
# wB97XD/Def2SVP opt freq pop=full gfinput

C 5 H 10 N 2

1 2
C    1.51222944   0.20675991   0.80720973
N    2.89808893   0.57629979   0.56700981
C    3.15761900   1.61324942  -0.16750993
C    2.06083918   2.46221924  -0.79001969
N    4.44531822   2.05712914  -0.46574983
C    5.48790789   1.03081965  -0.62806982
C    5.46765804   1.90152931   0.58153981
H    1.48995948  -0.70359975   1.41482949
H    0.98261964  -0.01516999  -0.12429996
H    0.97966963   0.98189962   1.36664951
H    1.47330952   1.85519934  -1.48489940
H    2.48933887   3.30240893  -1.34446955
H    1.40934944   2.86227894  -0.00871000
H    6.18026781   1.26024961  -1.42455947
H    5.15291834   0.00591000  -0.54668981
H    5.11774826   1.49407935   1.52002943
H    6.14577770   2.74058890   0.63174981

