%chk=mol_2199.chk
# wB97XD/Def2SVP opt freq pop=full gfinput

C 5 H 8 O 2

1 2
C    0.79448968  -1.10317957   0.60149974
C   -0.37729988  -1.48570943  -0.30748990
C   -1.51260948  -0.50065982  -0.24797991
C   -1.39611948   0.79954970   0.04899998
O   -0.24500990   1.51899934   0.21944991
C    0.89177966   1.02725959  -0.49331981
O    1.60626936  -0.03882999   0.12005995
H    1.45550942  -1.97000921   0.71166974
H    0.44798985  -0.84830970   1.61061931
H   -0.76340967  -2.45422912   0.03153999
H   -0.05238998  -1.60427940  -1.34685946
H   -2.51177907  -0.91148967  -0.38166985
H   -2.25592899   1.44010949   0.20946993
H    1.59511936   1.86353934  -0.56605977
H    0.63545978   0.76837975  -1.52967942

