%chk=mol_3717.chk
# wB97XD/Def2SVP opt freq pop=full gfinput

C 6 H 8 O 1

1 2
O    0.53427976  -0.05849998  -0.10540996
C    1.91487920  -0.33929989   0.12817995
C    2.55294895  -0.88393968  -1.16065955
C    2.01222920  -2.23903918  -1.54341936
C    2.75800896  -3.34291887  -1.67801940
C    2.57951927   0.90000963   0.56325978
C    3.11420894   1.91661930   0.92016965
H    0.20340993   0.37923986   0.69700974
H    1.97279918  -1.09038961   0.92475963
H    3.64324856  -0.93516964  -1.04410958
H    2.35066915  -0.19883992  -1.99425924
H    0.94019967  -2.29453921  -1.72826934
H    3.83074856  -3.33423877  -1.51297939
H    2.30256915  -4.28618860  -1.96477926
H    3.58587861   2.82007885   1.22983944

