%chk=mol_4492.chk
# wB97XD/Def2SVP opt pop=full gfinput

C 4 H 6 N 2 O 1

1 2
C    1.911439  -0.107790  -0.201180
C    4.785731  -0.031691  -0.015004
C    5.956152  -1.616887  -1.964975
N    6.832343  -2.857304  -3.548093
C    5.753857   2.660489  -0.223895
N    5.260979   3.948998  -2.406113
O    6.867019   3.721721   1.515126
H    1.049875   1.139599   1.208744
H    1.202659  -2.026694   0.120905
H    1.238621   0.496903  -2.064885
H    5.342237  -0.741982   1.851421
H    4.748485   3.086187  -4.035416
H    6.019137   5.702192  -2.551281

