%chk=mol_0345.chk
# wB97XD/Def2SVP opt pop=full gfinput

C 5 H 7 N 1

1 2
C    1.911458  -0.053404   0.480331
C    4.762110   0.000000   0.000000
C    5.364800  -1.463347  -2.391600
C    6.370361  -0.596946  -4.551425
C    5.672996   2.572238   0.000000
N    6.399047   4.622572   0.000000
H    1.444318   0.882332   2.268333
H    1.207233  -1.997800   0.587459
H    0.867120   0.919087  -1.022474
H    5.682973  -1.009907   1.560857
H    4.928406  -3.475206  -2.300515
H    6.878924   1.372206  -4.835186
H    6.714216  -1.869657  -6.126511

