%chk=mol_6864.chk
# wB97XD/Def2SVP opt freq pop=full gfinput

C 7 H 10

1 2
C    0.91384965  -0.15391994  -0.15068994
C    2.33118916   0.32697988   0.10861996
C    3.57944870  -0.45130983  -0.52463979
C    4.33081865   0.90628970  -0.16429994
C    2.98755908   1.45211947  -0.82429969
C    3.00493884   0.88360965  -2.20700908
C    3.39858866  -0.38412985  -2.00786924
H    0.19205992   0.59700978   0.18691993
H    0.72007972  -1.07767951   0.40400985
H    0.71530974  -0.35272986  -1.20768964
H    2.42204905   0.52286983   1.18860960
H    3.91936874  -1.38552952  -0.08205997
H    4.48888826   1.12260950   0.89842969
H    5.26203775   1.11114955  -0.70343977
H    2.71195889   2.49713898  -0.69222975
H    2.75761890   1.37888956  -3.13094878
H    3.54912877  -1.16924953  -2.73028898

