%chk=mol_5597.chk
# wB97XD/Def2SVP opt freq pop=full gfinput

C 4 H 8 N 2 O 1

1 2
N    1.22603953   0.03740999   0.62334973
C    2.33877921  -0.01134000  -0.01315000
N    3.01536894  -1.15872955  -0.22195992
C    4.09908867  -1.29926956  -1.14994955
C    4.92154837  -0.03019999  -1.11255956
C    3.98834848   1.13868964  -1.35861957
O    2.84761882   1.14726961  -0.48004982
H    0.95550966   1.02701962   0.63502979
H    2.48847914  -1.98903930   0.02217999
H    4.71689844  -2.16017914  -0.87570965
H    3.70507860  -1.47911942  -2.15638924
H    5.38585806   0.07545997  -0.12419996
H    5.72141790  -0.05599998  -1.85965931
H    4.52526855   2.08044910  -1.20447958
H    3.61476874   1.13901949  -2.38863921

