%chk=mol_0440.chk
# wB97XD/Def2SVP opt pop=full gfinput

C 4 H 12 N 2

1 2
C    1.845507  -0.230471  -0.236348
C    4.664997   0.183738   0.230849
N    6.148677  -1.316308  -1.600126
C    5.427218   3.025376   0.055993
C    4.368216   4.603543   2.226003
N    8.203358   3.270965   0.013152
H    0.703262   0.709517   1.207289
H    1.372489  -2.245618  -0.170302
H    1.270501   0.497905  -2.086503
H    5.135028  -0.527574   2.121047
H    5.734828  -0.713050  -3.385426
H    5.582497  -3.157317  -1.522496
H    4.721726   3.805058  -1.730744
H    4.961608   3.859633   4.065557
H    2.300666   4.638522   2.186451
H    5.013897   6.566761   2.095139
H    8.829103   1.864820  -1.170591
H    8.895810   2.732544   1.730309

