%chk=mol_4147.chk
# wB97XD/Def2SVP opt pop=full gfinput

C 4 H 6 N 2 O 1

1 2
C    1.738113  -0.106240  -0.010545
C    4.519904   0.106070  -0.005329
C    6.135185   2.133482  -0.006727
O    5.381090   4.535872  -0.013568
N    8.602261   1.420791  -0.000491
C    8.534192  -1.060987   0.004649
N    6.105195  -1.947665   0.001852
H    0.841722   1.757559   0.008145
H    1.084249  -1.144399   1.655098
H    1.088633  -1.109269  -1.699223
H    6.925960   5.529792  -0.012850
H   10.154746  -2.307034   0.010356
H    5.583857  -3.784819   0.004630

