%chk=mol_6101.chk
# wB97XD/Def2SVP opt freq pop=full gfinput

C 5 H 7 N 1 O 1

1 2
O    3.26487875  -0.75561970  -0.71501976
C    2.23000908   0.04226999  -0.15325993
C    2.73997879   1.43081939  -0.05592998
C    2.11876917   2.59601903   0.35158986
C    3.06493878   3.64529848   0.25357991
C    4.23891830   3.09697890  -0.21065992
N    4.03200865   1.75698936  -0.39535984
H    2.89789891  -1.65230942  -0.79406971
H    1.97757924  -0.34965989   0.83642966
H    1.35167956  -0.00532000  -0.80383974
H    1.09262955   2.68360901   0.68464971
H    2.90700889   4.68842840   0.49473983
H    5.20048809   3.54260874  -0.42623982
H    4.70560789   1.08010960  -0.73432970

