%chk=mol_4861.chk
# wB97XD/Def2SVP opt freq pop=full gfinput

C 5 H 8 N 2

1 2
C    2.08389926  -0.14257996  -0.07250997
C    0.82873970  -0.91351968   0.21199992
C   -0.40131983  -1.39291954  -0.46427983
C   -1.54483950  -0.43768984  -0.09846997
N   -1.40604949   0.74956971   0.44163984
N   -0.13306995   1.17451954   0.77472973
C    0.81222969   0.58398980  -0.16225995
H    2.61551905  -0.37223986  -0.98893964
H    2.74051881   0.08918997   0.75858974
H    0.76087970  -1.19952953   1.26380956
H   -0.67356974  -2.39550900  -0.11902995
H   -0.30214986  -1.42716944  -1.55442941
H   -2.56208920  -0.76723969  -0.36586985
H   -0.09565996   2.19589925   0.79560965
H    0.62330973   0.90505970  -1.18977952

