%chk=mol_5535.chk
# wB97XD/Def2SVP opt freq pop=full gfinput

C 5 H 7 N 1 O 1

1 2
N    1.02772963   0.04563998  -0.05189998
C    2.39519906  -0.02175999  -0.08745997
C    3.13719869  -1.13198960  -0.12298995
C    4.53567791  -0.69286972  -0.17559993
O    5.47444773  -1.47457945  -0.18375993
C    4.65288782   0.79907966  -0.23327991
C    3.20451880   1.24827945  -0.09049996
H    0.56275976  -0.81190974   0.23818991
H    0.65099978   0.87693971   0.39793983
H    2.83179903  -2.16168904  -0.13107994
H    5.07385826   1.10064948  -1.19680953
H    5.27315807   1.16827965   0.58753979
H    2.91709900   1.90402925  -0.91946965
H    3.06047893   1.79993927   0.84548968

