%chk=mol_4264.chk
# wB97XD/Def2SVP opt freq pop=full gfinput

C 5 H 7 N 1 O 1

1 2
C    0.97142965  -0.03063999  -0.13204995
C    2.43270898   0.05788998   0.16821994
C    3.18484879   1.16322958   0.10289996
C    4.62966871   1.33792949   0.37595987
O    4.87915802   2.75204897   0.25136992
N    3.68322873   3.41473866  -0.14662994
C    2.75686884   2.51846910  -0.22032991
H    0.74013972  -1.01683962  -0.54750985
H    0.65084976   0.71233976  -0.86836964
H    0.38751984   0.09747997   0.78416973
H    2.90810895  -0.87546968   0.46301982
H    5.24993801   0.81717974  -0.35944986
H    4.90157795   1.02634954   1.38840950
H    1.71456933   2.73161888  -0.49169981

