%chk=mol_3702.chk
# wB97XD/Def2SVP opt freq pop=full gfinput

C 5 H 4 O 2

1 2
O    0.85301971   0.16469994  -0.09153996
C    2.06990910   0.05851998  -0.05250998
C    2.91921878   1.22268951  -0.02941999
C    3.62898850   2.19018912  -0.00971000
C    4.47404814   3.34391880   0.01690999
C    4.64576817   4.16977835  -1.22977960
O    3.75962853   4.57201862  -0.17876993
H    2.59086895  -0.91157967  -0.03433999
H    5.27678823   3.35315871   0.74467969
H    4.19985867   3.82914853  -2.15594912
H    5.56343794   4.73117828  -1.35047948

