%chk=mol_0937.chk
# wB97XD/Def2SVP opt freq pop=full gfinput

C 6 H 12

1 2
C    0.93423963  -0.08614997  -0.06756998
C    2.46662927  -0.03460999   0.06400997
C    2.87512898  -0.80452973   1.33371949
C    3.10026884  -0.72871977  -1.15438950
C    2.89752889   1.42585945   0.05953998
C    3.57099867   2.08485913   1.01188958
H    0.59140980   0.41463983  -0.98073965
H    0.44540983   0.40384984   0.78283972
H    0.57503980  -1.12095952  -0.10592996
H    2.43062901  -0.36233988   2.23288918
H    3.96343851  -0.81707972   1.46375942
H    2.54118896  -1.84761930   1.28492963
H    2.80703902  -0.24266991  -2.09235930
H    2.79019880  -1.77807939  -1.21727955
H    4.19500828  -0.70859975  -1.09838951
H    2.61855912   1.99178934  -0.83087969
H    3.89478850   1.61601937   1.93433928
H    3.81813860   3.13480902   0.88327968

