%chk=mol_6874.chk
# wB97XD/Def2SVP opt freq pop=full gfinput

C 5 H 8 N 2

1 2
C    1.00114965  -0.09102997  -0.12253995
C    2.50727892   0.04194998   0.04958998
N    3.16195869  -1.24297953  -0.41617987
C    4.01548862  -0.83792967  -1.31245959
N    4.07069874   0.48901981  -1.56123936
C    3.14150882   1.13568950  -0.80911970
C    2.82188892   2.43288922  -0.82546967
H    0.48104981   0.79626971   0.25264990
H    0.62668979  -0.96048963   0.42826983
H    0.72788972  -0.22688991  -1.17494965
H    2.76815891   0.18846993   1.10440969
H    4.68914795  -1.48831940  -1.89027929
H    4.59956837   0.93635970  -2.29288936
H    3.32587862   3.13129878  -1.48326933
H    2.04614925   2.82625890  -0.17699994

