%chk=mol_6943.chk
# wB97XD/Def2SVP opt pop=full gfinput

C 5 H 8 N 2

1 2
C    2.723454  -0.974475  -1.324396
C    3.425525   1.392142  -0.762542
C    5.996536   2.406094  -0.935773
C    6.996503   3.199703  -3.466344
N    6.248587   5.093776  -1.598935
N    8.392557   5.942584  -0.509961
C    8.198123   8.287413   0.133471
H    0.769421  -1.565487  -1.128790
H    4.081903  -2.360892  -1.986310
H    1.979828   2.695505  -0.094014
H    7.321442   1.650449   0.435922
H    5.780937   3.061243  -5.105416
H    8.990976   2.945573  -3.850223
H    9.808473   9.237265   1.047570
H    6.484652   9.438596  -0.177445

