%chk=mol_5979.chk
# wB97XD/Def2SVP opt pop=full gfinput

C 5 H 5 N 1 O 1

1 2
O    1.862212  -0.134095   0.183776
C    4.427798  -0.058222   0.011679
C    5.737473   2.209336  -0.146510
C    8.363739   2.149072  -0.319005
C    9.564244  -0.182151  -0.325600
N    8.334561  -2.413464  -0.173496
C    5.783979  -2.299249  -0.007691
H    1.218458   1.585159   0.168809
H    4.764151   4.013117  -0.138460
H    9.454489   3.878795  -0.445938
H   11.608398  -0.319213  -0.457295
H    4.827041  -4.109606   0.112930

