%chk=mol_4305.chk
# wB97XD/Def2SVP opt pop=full gfinput

C 5 H 8 N 2

1 2
C    1.638090  -2.211263   1.617870
C    2.259659  -0.618375  -0.670210
C    1.915067   2.162206  -0.831706
C   -0.384181   3.044727   0.594376
C   -2.463636   1.158213   0.296328
N   -2.189663  -1.225072  -0.210327
N    0.087192  -2.302159  -0.677920
H    2.764367  -3.886600   1.958399
H    0.860260  -1.360716   3.305660
H    3.835010  -1.238073  -1.826912
H    3.601912   3.133771  -0.127594
H    1.722674   2.678762  -2.830564
H    0.001361   3.233397   2.619765
H   -1.024099   4.887928  -0.090820
H   -4.394936   1.839214   0.682380

