%chk=mol_1426.chk
# wB97XD/Def2SVP opt pop=full gfinput

C 5 H 10 N 2

1 2
C    1.855069  -1.634651   0.271119
C    4.671819  -1.082038   0.421069
C    5.215663   1.731405   0.041423
N    7.939457   2.178854   0.235025
C    8.592036   4.865478  -0.098530
C    8.297976   5.811267  -2.710415
N    8.063783   6.529419  -4.771181
H    1.506943  -3.656639   0.533016
H    1.087915  -1.084363  -1.569588
H    0.819631  -0.609720   1.739757
H    5.654552  -2.198356  -1.022663
H    5.384000  -1.702605   2.265990
H    4.218039   2.823270   1.492562
H    4.500401   2.320168  -1.811208
H    8.865367   1.132154  -1.095229
H   10.574208   5.094192   0.457654
H    7.491252   6.031666   1.213185

