%chk=mol_1915.chk
# wB97XD/Def2SVP opt freq pop=full gfinput

C 5 H 8 N 2

1 2
N    1.41026950   0.30144987   0.55372977
C    2.55240893   0.00080000   0.03478999
C    2.91506910  -1.43869948  -0.24713992
C    4.20842838  -1.32559943  -1.04445958
C    4.61796856   0.11212996  -0.92738968
C    3.85720849   1.17430961  -1.66439939
N    3.55914855   0.90027964  -0.25952992
H    1.39904940   1.32120955   0.67961973
H    2.12263918  -1.95080936  -0.79784971
H    3.08095884  -1.95028925   0.70640975
H    4.97664833  -1.99773932  -0.64968973
H    4.04048824  -1.58997941  -2.09435916
H    5.60434818   0.29810989  -0.53008980
H    4.32853842   2.13590908  -1.81296933
H    3.06687880   0.90954965  -2.35387921

