%chk=mol_5411.chk
# wB97XD/Def2SVP opt freq pop=full gfinput

C 4 H 10 N 2 O 1

1 2
C    3.50185871   3.10524893  -4.14470863
O    2.65140915   2.85626912  -3.02093887
C    3.24374890   2.94556880  -1.80534935
N    4.48763847   3.24242878  -1.63260937
N    4.84853792   3.27930880  -0.31866989
C    4.67543840   4.58503819   0.33850986
C    6.22174740   2.81583905  -0.07319997
H    2.89892888   3.00450873  -5.05146790
H    4.31012821   2.36852908  -4.18416834
H    3.90067840   4.12343836  -4.10706854
H    2.51417899   2.73100901  -1.00725961
H    3.63702869   4.92288780   0.24686991
H    5.32204771   5.34894800  -0.10803996
H    4.89291811   4.51708841   1.41021955
H    6.35635757   1.80956924  -0.48509982
H    6.42946768   2.75073910   1.00063956
H    6.96059704   3.47629857  -0.53884983

