%chk=mol_0950.chk
# wB97XD/Def2SVP opt freq pop=full gfinput

C 4 H 9 N 1 O 1

1 2
C    0.84187967   0.25834990  -0.30133989
C    2.28478909   0.05314998   0.07375997
C    2.59335899   0.16993994   1.54936945
O    2.29269934  -1.05579960   2.20360923
C    3.10158873  -0.92112964  -0.75001973
N    3.28812861   0.51610982  -0.90178967
H    0.68294978   0.19246992  -1.38323951
H    0.49867982   1.24515951   0.02678999
H    0.21113992  -0.49983981   0.17415993
H    2.01383924   0.97345960   2.01577926
H    3.65379858   0.38315985   1.72466946
H    1.33959949  -1.21169949   2.09920931
H    2.62823892  -1.43002951  -1.58129942
H    3.90202832  -1.47256947  -0.26960990
H    4.15204811   0.81337965  -0.44433984

