%chk=mol_3867.chk
# wB97XD/Def2SVP opt freq pop=full gfinput

C 4 H 6 N 2 O 1

1 2
C    1.69508934  -0.45434982   0.17437993
O    0.87233973  -1.64388931   0.02915999
C   -0.17952994  -0.86293966  -0.59678978
C   -1.40586948  -0.54548979   0.27758992
N   -1.35757959   0.62780976   0.82159966
N   -0.14164996   1.17634952   0.50334978
C    0.64535981   0.42648983  -0.50084978
H    2.62931895  -0.56063980  -0.38707983
H    1.92640924  -0.24632990   1.22375953
H   -0.40573984  -1.21581960  -1.60595942
H   -2.24647927  -1.24811947   0.36270985
H   -0.18138994   2.19310904   0.42880985
H    0.89244968   0.93294966  -1.43429947

