%chk=mol_0867.chk
# wB97XD/Def2SVP opt freq pop=full gfinput

C 4 H 6 O 2

1 2
O    1.15993953  -0.01176000   0.46533981
C    2.33903909   0.02388999   0.14028995
C    3.14091897   1.27604949   0.03947999
C    4.29118824   0.74937969  -0.78738976
O    4.48702812  -0.60888976  -0.37466985
C    3.18057871  -1.18172956  -0.17613994
H    3.46305847   1.56539941   1.04349959
H    2.60289884   2.08584929  -0.45570982
H    4.05620861   0.75608975  -1.85821927
H    5.21147823   1.31844950  -0.62934977
H    2.84624887  -1.65815938  -1.09999955
H    3.21748877  -1.87839937   0.66230977

