%chk=mol_4392.chk
# wB97XD/Def2SVP opt freq pop=full gfinput

C 5 H 5 N 1 O 1

1 2
C    0.88938963   0.22433992   0.16153994
C    2.21694922   0.21778992  -0.05537998
C    2.99779892  -1.05893958  -0.20444992
C    3.48514867  -1.26742947  -1.62369943
O    3.03005886  -0.70265973  -2.61283898
C    2.93104887   1.45443940  -0.11163996
N    3.53264880   2.44699907  -0.12439995
H    0.33638987   1.15372956   0.27604988
H    0.31515989  -0.69512975   0.21647993
H    2.40530920  -1.93838930   0.07167997
H    3.87473845  -1.03730965   0.45303982
H    4.26940870  -2.03649926  -1.73470926

