%chk=mol_1734.chk
# wB97XD/Def2SVP opt pop=full gfinput

C 6 H 11 N 1

1 2
C    2.075694  -0.490460   0.047357
N    4.786034  -0.043426   0.024831
C    5.594912   2.618556   0.000000
C    4.665923   4.002553  -2.384834
C    4.667416   4.033639   2.363386
C    8.323677   2.618556   0.000000
C   10.572753   2.618556   0.000000
H    1.736016  -2.531666   0.088723
H    1.142188   0.245457  -1.643381
H    1.168474   0.292511   1.730082
H    5.557911  -0.930917  -1.501387
H    5.228097   3.002548  -4.112535
H    5.469850   5.911460  -2.502734
H    2.605857   4.210574  -2.411687
H    5.215947   3.047977   4.105185
H    2.608124   4.259991   2.382246
H    5.484968   5.938993   2.466017
H   12.585840   2.606046   0.011679

