%chk=mol_4859.chk
# wB97XD/Def2SVP opt pop=full gfinput

C 5 H 9 N 1 O 1

1 2
C    2.524050  -1.319029   1.229985
C    4.720612  -0.056824  -0.108924
O    6.911239  -0.302262   1.444733
C    9.111315   0.881066   0.374544
C   11.057071   1.100992   2.488221
C   10.175873  -0.591201  -1.747127
N   11.005104  -1.708558  -3.445141
H    0.794327  -1.172065   0.108792
H    2.198923  -0.447109   3.077967
H    2.931664  -3.318756   1.570627
H    4.298239   1.947495  -0.409579
H    5.033248  -0.968371  -1.940068
H    8.616093   2.791088  -0.258685
H   11.548985  -0.763015   3.248893
H   10.289804   2.202400   4.064102
H   12.795166   2.012880   1.831107

