%chk=mol_0667.chk
# wB97XD/Def2SVP opt pop=full gfinput

C 5 H 10 O 1

1 2
C    5.958344  -2.345263  -0.575365
C    4.612425   0.006576   0.377019
C    6.433535   2.101035   0.899472
O    7.133490   3.558865  -1.276642
C    5.649223   4.823469   0.606413
C    7.001019   6.878206   1.961403
H    4.598101  -3.862166  -0.927648
H    7.338789  -3.021445   0.809502
H    6.969046  -1.956868  -2.338404
H    3.594750  -0.446580   2.123259
H    3.194563   0.591730  -1.016389
H    7.885279   1.618966   2.256654
H    3.710024   5.281690   0.158227
H    8.985138   6.405264   2.315198
H    6.092931   7.244039   3.783704
H    6.944573   8.623387   0.851681

