%chk=mol_5648.chk
# wB97XD/Def2SVP opt pop=full gfinput

C 5 H 9 N 1 O 1

1 2
N    4.756535  -0.670229   2.926619
C    4.851399   0.023130   0.268606
C    5.629230   2.695713  -0.064345
C    7.593959   3.579122  -1.358902
O    7.892441   6.161924  -1.406882
C    5.720825   7.105011  -0.057070
C    4.246328   4.871809   1.028748
H    4.382426  -2.552661   3.068480
H    3.278165   0.226805   3.766905
H    2.993610  -0.278017  -0.594281
H    6.180387  -1.236410  -0.699973
H    9.019719   2.537751  -2.375707
H    4.558832   8.195951  -1.379954
H    6.368698   8.385150   1.435512
H    2.265366   4.929596   0.439966
H    4.321293   4.876514   3.095636

