%chk=mol_5103.chk
# wB97XD/Def2SVP opt freq pop=full gfinput

C 4 H 10 N 2 O 1

1 2
C    1.71622932  -0.93860966   0.25246990
N    3.15925884  -0.72705972   0.24779992
C    3.47512865   0.67250973  -0.06850997
C    4.98585844   0.88740969  -0.04247998
C    5.34140825   2.31921911  -0.37095985
N    6.68126774   2.58022904  -0.35551986
O    4.53391838   3.19793892  -0.64477974
H    1.50255954  -1.98168921   0.50468981
H    1.27851951  -0.73286974  -0.72972971
H    1.22535956  -0.31080988   1.00292969
H    3.57866859  -1.33653951  -0.45418984
H    3.00110888   1.33692944   0.66463971
H    3.07970881   0.93325967  -1.05818963
H    5.47636795   0.23597991  -0.77574968
H    5.38594818   0.65152973   0.95097965
H    7.37382698   1.89525938  -0.08779997
H    6.97858763   3.52729869  -0.55005980

