%chk=mol_4989.chk
# wB97XD/Def2SVP opt freq pop=full gfinput

C 4 H 7 N 1 O 2

1 2
C    1.10470951  -0.02767999   0.16870995
N    2.47705913   0.02973999  -0.26806989
C    3.25464892   1.22421956  -0.17713994
C    4.58526850   0.76346976  -0.71644968
O    4.60622835  -0.64698976  -0.46450984
C    3.31434870  -1.06261957  -0.27756992
O    2.99325895  -2.22855926  -0.11604995
H    0.68735975  -1.02055955  -0.02093999
H    0.52622980   0.72419971  -0.37403986
H    1.06485963   0.17477994   1.24278951
H    3.33282876   1.50758946   0.87817967
H    2.81285906   2.04158926  -0.75221974
H    4.67061853   0.91953963  -1.79712939
H    5.42798805   1.24947953  -0.21721992

