%chk=mol_5961.chk
# wB97XD/Def2SVP opt freq pop=full gfinput

C 5 H 7 N 1 O 1

1 2
O    1.51451945   0.02889999   1.27848959
C    2.40504909   0.00840000   0.43786985
C    3.01396894  -1.26219952  -0.12991995
C    4.03191853  -0.77726972  -1.11862957
N    5.21294785  -0.03206999  -0.69980973
C    4.04566860   0.72128975  -1.14013958
C    3.03651881   1.25213945  -0.16612993
H    2.23259926  -1.84027922  -0.62956977
H    3.47787881  -1.84452927   0.66959971
H    4.09387827  -1.33662951  -2.04110932
H    5.32752800  -0.01878999   0.31572986
H    4.11685848   1.25313950  -2.07796931
H    3.51095867   1.84916925   0.61731976
H    2.26512909   1.82988930  -0.68176973

