%chk=mol_6886.chk
# wB97XD/Def2SVP opt freq pop=full gfinput

C 7 H 12

1 2
C    0.97355962   0.18356994  -0.19961992
C    2.44478917   0.07078997   0.00804000
C    3.26785898  -0.82477969  -0.87322968
C    3.40027881   0.67539978  -0.99517959
C    4.62018824   1.34651947  -0.50887978
C    4.40665817   2.55917907   0.36063984
C    5.86415768   0.96790969  -0.84956974
H    0.60832977   1.13053954   0.20985992
H    0.45685983  -0.63242978   0.31528986
H    0.70168972   0.14352995  -1.25956953
H    2.70079899   0.09802996   1.06144965
H    2.77812886  -1.35253942  -1.68383932
H    4.06518841  -1.39082944  -0.40463987
H    2.97559905   1.13192952  -1.88528919
H    3.74915862   3.27561879  -0.14318995
H    5.34546804   3.07530904   0.58835977
H    3.94536853   2.27399921   1.31141961
H    6.03121758   0.11421996  -1.49894941
H    6.74183750   1.49669945  -0.49257982

