%chk=mol_2240.chk
# wB97XD/Def2SVP opt freq pop=full gfinput

C 5 H 6 O 2

1 2
C    1.05145967   1.10833955  -0.45464984
O   -0.14295995   1.57370949   0.16713993
C   -1.25884950   0.80776972   0.00473000
C   -1.37489939  -0.49975982  -0.26453990
O   -0.41758984  -1.47621953  -0.36585987
C    0.84898967  -1.30078948   0.12535995
C    1.55493939  -0.16613993   0.12982996
H    1.80831933   1.88521934  -0.29886988
H    0.91207969   1.02664959  -1.54004943
H   -2.13661933   1.42685950   0.15373994
H   -2.34845924  -0.95959961  -0.39312986
H    1.24231958  -2.24270916   0.48693982
H    2.56558895  -0.17064993   0.52400982

