%chk=mol_6331.chk
# wB97XD/Def2SVP opt freq pop=full gfinput

C 5 H 5 N 1 O 1

1 2
O    0.89835966   0.03347998   0.00725000
N    2.29146910  -0.11561996  -0.00233000
C    2.87994909   1.03202963  -0.00339000
C    2.29524899   2.39061928   0.00384000
C    3.33896852   3.22579885  -0.00111000
C    4.57347822   2.49742889  -0.01110000
C    4.34858799   1.18163955  -0.01279000
H    0.59278977  -0.89256966   0.00680000
H    1.24394965   2.61163902   0.01139000
H    3.27730870   4.30381870   0.00191000
H    5.54616785   2.96616888  -0.01643999
H    5.04774809   0.36592984  -0.01941999

