%chk=mol_5634.chk
# wB97XD/Def2SVP opt pop=full gfinput

C 4 H 7 N 1 O 2

1 2
N    3.700140  -0.803493  -2.432210
C    4.593376   0.214560  -0.021921
C    6.147808   2.610335  -0.429270
C    4.719062   4.999384  -1.240813
C    5.576601   5.969777   1.353838
O    5.368353   7.879062   2.587243
O    6.783550   3.792964   1.977976
H    2.548995  -2.313762  -2.086636
H    5.190700  -1.518187  -3.427018
H    5.735546  -1.218703   0.940951
H    2.956231   0.612498   1.182232
H    7.873600   2.265725  -1.527409
H    2.673698   4.842915  -1.434019
H    5.538088   6.028964  -2.830753

