%chk=mol_5218.chk
# wB97XD/Def2SVP opt freq pop=full gfinput

C 4 H 8 N 2 O 1

1 2
C    1.19986963   0.50203985  -0.56993979
N    2.48204923   0.61207974   0.07133997
C    3.62594867   0.14082994  -0.53231978
O    3.67175865  -0.28986987  -1.67873931
N    4.71286821   0.23005992   0.34101987
C    5.71868801  -0.79474974   0.34803987
C    6.01594782   0.56517977  -0.16197994
H    0.84439969  -0.52725983  -0.46859983
H    1.28159952   0.75439972  -1.63069940
H    0.50345981   1.18389952  -0.07585997
H    2.53235888   0.70036978   1.07591951
H    5.56604815  -1.60076928  -0.35778987
H    6.04213762  -1.07127953   1.34115946
H    6.55165768   1.26325953   0.46557981
H    6.07492781   0.72671974  -1.23110962

