%chk=mol_3413.chk
# wB97XD/Def2SVP opt freq pop=full gfinput

C 6 H 10 O 1

1 2
C    0.76625973   0.78069967   0.39646986
O    2.15356898   0.54775983   0.19223993
C    2.85810900   1.76284933  -0.06690998
C    4.32634830   1.42003942  -0.30010989
C    5.19838762   2.65295887  -0.51538980
C    4.88891840   3.34161878  -1.77709925
C    4.63768816   3.90406847  -2.80770898
H    0.27904990  -0.18061993   0.57994980
H    0.31843987   1.23504949  -0.49263981
H    0.61074978   1.42396951   1.26783955
H    2.75650883   2.43116903   0.79597974
H    2.42736912   2.24901915  -0.94913965
H    4.40947819   0.73250973  -1.15186965
H    4.70068836   0.86294973   0.56833977
H    6.25020742   2.34385920  -0.52874982
H    5.08330822   3.34590864   0.32604986
H    4.41637850   4.40138865  -3.72527862

