%chk=mol_1958.chk
# wB97XD/Def2SVP opt freq pop=full gfinput

C 5 H 8 N 2

1 2
N    1.03284967  -0.05883998   0.01866999
C    2.30381918  -0.06100998   0.09740996
N    3.22231889  -1.07066953   0.23867990
C    4.51098871  -0.39267987   0.06748998
C    4.33473825   0.65745974  -1.10199964
C    3.26323867   1.16313958  -0.05586998
C    4.43030834   0.90177965   0.97477961
H    0.68744969  -1.01362967   0.15170994
H    3.06250906  -1.87832928  -0.35338986
H    5.39267778  -1.02886963   0.10849996
H    3.94488835   0.26881990  -2.04734921
H    5.18244791   1.32061958  -1.30515945
H    2.84395909   2.16030908  -0.15720995
H    5.28577805   1.58499944   0.94058961
H    4.13218832   0.74738973   2.01584911

