%chk=mol_6286.chk
# wB97XD/Def2SVP opt pop=full gfinput

C 4 H 6 N 2 O 1

1 2
O    2.203836   0.017763  -1.265417
C    4.341608   0.198402  -0.402039
N    5.600732   2.404242   0.099211
C    8.099876   2.594518   1.104110
C    8.506489   5.434701   1.270123
N    6.162642   6.634413   0.298747
C    4.683573   4.787659  -0.291037
H    5.479280  -1.484304   0.065933
H    9.439333   1.668760  -0.171927
H    8.189412   1.662789   2.948766
H   10.125153   6.028302   0.126101
H    8.838816   6.030513   3.223627
H    2.766238   4.975290  -1.074234

