%chk=mol_0457.chk
# wB97XD/Def2SVP opt pop=full gfinput

C 4 H 10 N 2

1 2
C    2.240894  -0.240298  -0.032862
N    4.998892  -0.171587  -0.078764
C    6.076830  -1.079563  -2.448480
C    6.009008   1.713887  -1.832619
C    8.378403   3.097337  -1.152393
N    9.704254   3.780397  -3.469934
H    1.535743   1.163467   1.313643
H    1.606210  -2.101205   0.611553
H    1.345693   0.133566  -1.864593
H    4.818386  -1.784298  -3.900489
H    7.854968  -2.079473  -2.285473
H    4.685462   2.904717  -2.848006
H    9.620463   1.954884   0.048793
H    7.894029   4.815910  -0.104729
H   10.302654   2.170993  -4.339114
H   11.300581   4.748655  -3.001811

