%chk=mol_6487.chk
# wB97XD/Def2SVP opt freq pop=full gfinput

C 3 H 6 O 3 S 1

1 2
C    0.97544962   0.07850997   0.06294998
C    2.47664905  -0.08244997  -0.03007999
O    3.16030884   0.90022969   0.78205967
C    4.19614840   0.01514999   1.25393951
S    3.22646880  -1.39374948   0.87363964
O    2.43306923  -1.84179926   2.00228930
O    3.92760849  -2.32057905   0.00538000
H    0.46869984  -0.74352968  -0.45371982
H    0.65950978   1.01446962  -0.40840986
H    0.62995976   0.09240997   1.10074961
H    2.82853889  -0.03991998  -1.06697953
H    5.11658812   0.10974996   0.67050976
H    4.39722872   0.14623994   2.31915927

