%chk=mol_4023.chk
# wB97XD/Def2SVP opt freq pop=full gfinput

C 4 H 8 N 2 O 1

1 2
C    0.99278963  -0.08015997   0.19739993
C    2.47705913   0.08899996  -0.05895998
C    3.23368859   1.14246953   0.78697968
N    3.79313874   0.02117999   1.56694937
N    5.13196802   0.04328998   1.98932922
C    3.39838886  -0.92394966   0.64448977
O    3.76504874  -2.06434917   0.46579981
H    0.61414975  -0.97511965  -0.30672988
H    0.43794984   0.78143972  -0.18765992
H    0.77178973  -0.17358993   1.26588953
H    2.69253898   0.17084993  -1.13158965
H    2.61135912   1.80693936   1.39267945
H    3.98823833   1.72106946   0.24399991
H    5.55031776  -0.85713971   1.72387934
H    5.12695789   0.03101999   3.01063895

