%chk=mol_3713.chk
# wB97XD/Def2SVP opt pop=full gfinput

C 6 H 6 O 1

1 2
O    5.009796   0.177615   3.493008
C    4.330307   1.971495   2.190117
C    5.799343   3.074055  -0.010847
C    8.529109   2.322889   0.027325
C   10.448390   3.976721   0.063948
C   13.003149   3.151307   0.098266
C   15.165090   2.467359   0.125100
H    2.461652   2.843225   2.507024
H    5.593665   5.132175   0.082260
H    4.905332   2.420758  -1.758031
H    8.921756   0.301241   0.039590
H   10.108523   5.998765   0.063514
H   17.083408   1.854615   0.152482

