%chk=mol_6341.chk
# wB97XD/Def2SVP opt pop=full gfinput

C 4 H 4 N 2 O 1

1 2
O    5.239058  -2.024256   0.043256
N    3.996563  -0.046109   0.012510
C    5.420321   2.174753   0.015118
C    4.389758   4.559645  -0.015798
N    6.349442   6.260209  -0.002343
C    8.605850   4.978086   0.036698
C    8.080431   2.424235   0.048339
H    2.448235   5.196085  -0.046015
H    6.161565   8.164826  -0.018670
H   10.383686   5.989052   0.052780
H    9.460800   0.914911   0.077498

