%chk=mol_1624.chk
# wB97XD/Def2SVP opt freq pop=full gfinput

C 6 H 11 N 1

1 2
C    1.10617959  -0.20690991  -0.03931998
N    2.56712890  -0.21216992  -0.05033998
C    3.14080882  -0.62926978  -1.32585943
C    3.13498878   0.82670969  -0.91137964
C    4.40168810   1.50724947  -0.47552982
C    5.01181793   2.37967920  -1.54005945
C    5.18613815   3.70088863  -1.41758943
H    0.74702972   0.54874980   0.66636980
H    0.73992968  -1.18050957   0.30085990
H    0.64846975   0.00066000  -1.01451957
H    2.47349906  -0.94733959  -2.11732936
H    4.06609869  -1.18792951  -1.25927949
H    2.44305921   1.50895953  -1.39464951
H    5.15248823   0.76599973  -0.17354994
H    4.18069839   2.10422921   0.41904983
H    5.32927799   1.88455927  -2.45488906
H    4.88962841   4.23619843  -0.52021980
H    5.63579798   4.28018808  -2.21931911

