%chk=mol_6156.chk
# wB97XD/Def2SVP opt pop=full gfinput

C 4 H 9 N 1 O 2

1 2
O    2.657994   0.625783  -1.675129
C    4.774450   0.033788  -0.115198
C    6.419967   2.314518   0.202484
N    6.198188   4.443880  -1.573613
C    5.321507   4.814285   1.037800
C    6.774668   6.539322   2.747454
O    9.310965   6.813464   1.886381
H    1.775341  -0.957638  -1.980528
H    5.845225  -1.487819  -1.017958
H    4.087345  -0.621493   1.721578
H    8.311828   1.834338   0.823618
H    4.680171   4.072133  -2.730730
H    3.298309   4.955996   1.319558
H    6.810894   5.797396   4.676014
H    5.902730   8.413874   2.779447
H    9.201341   6.592555   0.051495

