%chk=mol_4701.chk
# wB97XD/Def2SVP opt pop=full gfinput

C 4 H 10 N 2 O 1

1 2
C    1.453218  -0.896203  -0.596379
C    4.195948  -0.156545  -0.063835
N    5.894396  -1.984874  -1.272806
C    4.820125   2.500240  -1.026480
C    3.423295   4.464062   0.477685
N    1.745975   5.890673  -0.582621
O    0.744760   7.526817   1.236901
H    0.139783   0.353133   0.401227
H    1.068999  -2.827314   0.046185
H    1.017523  -0.798050  -2.618197
H    4.514537  -0.243321   1.981831
H    5.602150  -1.983400  -3.179483
H    5.456717  -3.766546  -0.680415
H    4.366099   2.700910  -3.037508
H    6.840412   2.892831  -0.783745
H    3.885447   4.620324   2.507194
H   -0.436640   8.540901   0.248537

