%chk=mol_4395.chk
# wB97XD/Def2SVP opt pop=full gfinput

C 5 H 5 N 1 O 1

1 2
C    2.698869  -0.907125  -1.754630
C    4.702300  -1.023986  -0.212311
C    6.377127   1.181192   0.411337
C    9.086351   0.702354  -0.408200
O   10.121751  -1.373661  -0.400773
C   10.494405   2.954020  -1.092035
N   11.560947   4.802607  -1.616887
H    1.572384  -2.582953  -2.130232
H    2.126055   0.833124  -2.678573
H    5.181931  -2.828618   0.657663
H    6.374273   1.499441   2.457060
H    5.675093   2.905019  -0.498907

