%chk=mol_3109.chk
# wB97XD/Def2SVP opt freq pop=full gfinput

C 7 H 10

1 2
C    0.84056967   0.02710999   0.21836992
C    2.29916906   0.15647994  -0.23398992
C    2.60597920  -0.73500973  -1.45227945
C    2.52379918  -2.17110920  -1.13360953
C    2.45383906  -3.34309888  -0.88166964
C    2.58766890   1.60429943  -0.56862974
C    3.50954866   2.34990907   0.05417998
H    0.63086981   0.69720978   1.05998969
H    0.61726975  -0.99199963   0.55045974
H    0.14549994   0.27753991  -0.59113979
H    2.93745875  -0.15711994   0.60357976
H    3.61747885  -0.51955980  -1.82038927
H    1.91834927  -0.50367981  -2.27548933
H    2.38941908  -4.38342857  -0.65952975
H    1.99976933   2.05655932  -1.36607945
H    4.12193823   1.95040929   0.85673970
H    3.66966867   3.38592863  -0.22910991

