%chk=mol_2616.chk
# wB97XD/Def2SVP opt pop=full gfinput

C 6 H 4 O 1

1 2
C    1.726019   0.093957  -0.006727
C    3.993804   0.042046  -0.003893
C    6.680975  -0.046336   0.001455
C    8.267118   2.009006   0.004611
O   10.721021   1.240624   0.011603
C   10.692183  -1.327967   0.012850
C    8.246594  -2.212057   0.005877
H   -0.286426   0.128917  -0.008353
H    7.977649   4.032052   0.003099
H   12.524991  -2.230633   0.019011
H    7.671683  -4.171344   0.005121

