%chk=mol_4620.chk
# wB97XD/Def2SVP opt pop=full gfinput

C 5 H 9 N 1 O 1

1 2
C    3.375882  -0.301562   1.063141
C    4.926100  -0.379703  -1.364987
C    3.500661  -1.940598  -3.305169
O    4.309502  -3.931915  -4.192301
N    5.194630   2.203666  -2.370416
C    7.554823   3.431043  -1.622084
C    7.190899   2.452184  -4.267285
H    4.335806   0.796444   2.532290
H    3.071259  -2.215609   1.794749
H    1.504997   0.534755   0.751828
H    6.741314  -1.311527  -0.994638
H    1.639413  -1.199693  -3.881932
H    8.852025   2.436462  -0.386033
H    7.457426   5.455602  -1.325548
H    6.837256   3.813600  -5.754953
H    8.216605   0.777584  -4.846788

