%chk=mol_0704.chk
# wB97XD/Def2SVP opt freq pop=full gfinput

C 6 H 10

1 2
C    1.62320936  -0.67871976   1.07654965
C    2.39954925  -0.27713990   0.06254998
C    3.08245873   1.06078970   0.00096000
C    4.60624790   0.91264969  -0.06648997
C    5.28820801   2.25067902  -0.13275994
C    6.05745792   2.65234900  -1.15242958
H    1.15078950  -1.65628946   1.06066966
H    1.43893945  -0.04784998   1.94067919
H    2.54735899  -0.94390965  -0.78484970
H    2.80636907   1.67380941   0.86881965
H    2.71965885   1.59226942  -0.88805968
H    4.88198805   0.29745990  -0.93227965
H    4.96907806   0.38428986   0.82379967
H    5.14638805   2.91773891   0.71551973
H    6.23521757   2.02137923  -2.01784921
H    6.52994728   3.63003850  -1.14015961

