%chk=mol_4661.chk
# wB97XD/Def2SVP opt freq pop=full gfinput

C 5 H 10 N 2

1 2
C    0.95678961  -0.17820993   0.11478996
C    0.52902979  -0.11671995   1.55365944
C   -0.80317968   0.47905982   1.92788935
N   -0.57668978  -0.96153963   2.01787925
N    1.74777925   1.02631962  -0.17119993
C    3.17670870   0.76966971  -0.34123987
C    2.29138923   1.03533959  -1.52800941
H    1.50955939  -1.11146963  -0.05281998
H    0.08008996  -0.20013992  -0.54473978
H    1.36236954  -0.00872000   2.23781919
H   -1.46694946   0.80787975   1.13754952
H   -0.88177967   1.02328968   2.86037898
H   -0.42987984  -1.24219954   2.98934889
H    3.55543852  -0.23420992  -0.19198993
H    3.83977866   1.56216943  -0.01502999
H    2.35224915   2.00763917  -2.00156927
H    2.04654932   0.21305992  -2.18908930

