%chk=mol_1106.chk
# wB97XD/Def2SVP opt freq pop=full gfinput

C 4 H 7 N 1 O 1

1 2
O    1.23215950  -0.14895995   0.55304980
C    2.36245894  -0.04081998   0.11256996
C    3.18223882   1.22281945   0.04188998
C    4.34977818   0.81929970  -0.85492969
C    4.48108816  -0.67328978  -0.62591976
N    3.13697863  -1.08121967  -0.35710987
H    3.52169871   1.48218942   1.04914963
H    2.60454893   2.04336929  -0.38984984
H    4.08761835   1.01328957  -1.90265930
H    5.26905823   1.36770952  -0.63167977
H    4.87168789  -1.20792961  -1.49500954
H    5.09096813  -0.89859968   0.25466990
H    2.80908895  -2.03632927  -0.28000990

