%chk=mol_5533.chk
# wB97XD/Def2SVP opt pop=full gfinput

C 4 H 7 N 1 O 2

1 2
N    1.869015   0.105541   0.087627
C    4.635423   0.126631   0.012113
C    5.732503   2.197449   1.640566
C    8.302549   1.137464   2.271810
O    7.951476  -1.531925   2.492605
C    5.808697  -2.208240   1.205815
O    5.066072  -4.380555   0.965234
H    1.250073  -1.592775  -0.600158
H    1.169306   1.459435  -1.088936
H    5.316669   0.247516  -1.939709
H    4.638390   2.423725   3.388884
H    5.821736   4.035737   0.700144
H    9.688172   1.497192   0.777036
H    9.030000   1.891238   4.053538

