%chk=mol_5346.chk
# wB97XD/Def2SVP opt freq pop=full gfinput

C 5 H 13 N 1 O 1

1 2
C    1.27078962   2.17590928   0.49706981
O    2.67169905   2.20955920   0.73354977
C    3.38593888   1.42771947  -0.23518991
C    4.90611792   1.47118938   0.06482998
C    5.19191790   0.93559968   1.47610950
C    5.66627741   0.63887972  -0.97249961
N    5.38508797   2.86395884  -0.02151999
H    0.78084970   2.80935884   1.24135959
H    0.89136964   1.15487957   0.60398978
H    1.03803957   2.56252885  -0.49932981
H    3.18350887   1.82677925  -1.23728955
H    3.02467895   0.39225987  -0.19513993
H    4.71071815   1.54651940   2.24957919
H    6.26676750   0.92246968   1.68943942
H    4.82127810  -0.09016997   1.58637941
H    5.49444818   1.01355958  -1.98940933
H    5.34427834  -0.40833986  -0.94767964
H    6.74680758   0.65722978  -0.78958970
H    4.75497818   3.43683887   0.54630977
H    6.30378771   2.94227886   0.41149983

