%chk=mol_4004.chk
# wB97XD/Def2SVP opt pop=full gfinput

C 5 H 7 N 1 O 1

1 2
C    1.908737   0.027004   0.163008
C    4.705588  -0.008485  -0.039741
C    6.216424  -2.022687  -0.236556
N    8.661201  -1.261827  -0.381611
C    8.883698   1.342197  -0.286275
O   10.852924   2.537184  -0.379684
C    6.225438   2.409363  -0.046053
H    1.120381  -1.884964   0.120905
H    1.086177   1.090504  -1.408243
H    1.326267   0.918879   1.935684
H    5.708806  -4.000890  -0.285386
H   10.180730  -2.405999  -0.542219
H    5.781409   3.590688  -1.679229
H    6.030758   3.442136   1.731575

