%chk=mol_5387.chk
# wB97XD/Def2SVP opt freq pop=full gfinput

C 4 H 12 N 2 O 1

1 2
C    3.38790870   1.56868947   3.14675879
O    4.13783836   2.37248921   2.24680924
C    3.57287860   2.42000914   0.91743964
C    2.33634901   3.34801865   0.87122971
N    2.62093902   4.70588827   1.34499955
C    4.67320824   2.91302896  -0.04661998
N    5.78700829   1.95158923  -0.11431996
H    3.95169854   1.48642945   4.08061838
H    3.23975873   0.56228983   2.74305916
H    2.42417908   2.03269935   3.37305880
H    3.27049875   1.40822947   0.61584979
H    1.54413939   2.93004894   1.50109947
H    1.94405937   3.40005875  -0.15004994
H    3.14302897   4.63219833   2.22144914
H    1.74733937   5.18191814   1.56425941
H    5.08003807   3.86965871   0.30035990
H    4.26905823   3.05239868  -1.05461955
H    6.08582783   1.77493930   0.84814966
H    6.57680750   2.40019917  -0.57528979

