%chk=mol_5333.chk
# wB97XD/Def2SVP opt pop=full gfinput

C 5 H 11 N 1 O 1

1 2
C    5.788628  -0.494126   1.388476
O    4.339737   1.687147   0.779644
C    5.584613   3.923355   0.256549
C    3.725179   6.000145  -0.302054
C    8.118226   4.213107   0.247403
C    9.613453   6.549148  -0.294986
N   11.237408   7.106844   1.856184
H    4.473398  -2.045459   1.759751
H    6.907327  -0.187593   3.101362
H    6.991722  -1.049365  -0.199971
H    2.571407   6.376087   1.374360
H    2.461595   5.415880  -1.834395
H    4.592205   7.779719  -0.876342
H    9.323039   2.600830   0.656850
H    8.448739   8.200618  -0.706039
H   10.796402   6.207165  -1.959193
H   10.125890   7.540593   3.369023
H   12.253494   8.696368   1.475933

