%chk=mol_3922.chk
# wB97XD/Def2SVP opt freq pop=full gfinput

C 5 H 7 N 1 O 1

1 2
C    0.99753958   0.02409999  -0.11757996
C    2.49943900  -0.03055999   0.08864997
C    3.14285874  -1.23980963  -0.55306983
C    4.04115868  -0.87592971  -1.47125947
N    4.09350872   0.47702983  -1.55165935
C    3.21072888   1.08610952  -0.67579979
O    3.04187894   2.28808928  -0.55399978
H    0.58256978   0.94080967   0.31598991
H    0.50474977  -0.83058965   0.35818988
H    0.73296970   0.01970999  -1.18159950
H    2.76729894   0.02643999   1.14815962
H    2.90705895  -2.25979900  -0.28570989
H    4.66276836  -1.50670946  -2.09097910
H    4.68536806   1.00995958  -2.17396903

