%chk=mol_0389.chk
# wB97XD/Def2SVP opt freq pop=full gfinput

C 5 H 11 N 1

1 2
C    1.32205951   0.28719988   0.13713995
C    2.80229878  -0.00040000  -0.12465996
C    2.95066881  -0.84004968  -1.39567959
N    3.51511884   1.27444947  -0.30479988
C    3.95787835   1.88433933   0.94696963
C    4.93712807   1.20639956   0.02477999
H    1.18758953   0.86683971   1.05683959
H    0.76262975  -0.64765978   0.25129992
H    0.86869967   0.84961969  -0.68701977
H    3.19359875  -0.58395976   0.72016978
H    2.55394912  -0.31683987  -2.27316904
H    2.40795922  -1.78651929  -1.29729950
H    4.00127840  -1.08071971  -1.59136939
H    3.70580864   1.40009952   1.88207936
H    3.94636869   2.96712899   0.97011966
H    5.58722782   1.83128929  -0.57479978
H    5.35891819   0.25581989   0.32559988

