%chk=mol_0739.chk
# wB97XD/Def2SVP opt pop=full gfinput

C 5 H 10 O 1

1 2
C    1.788550  -0.225709  -0.193225
C    4.647762   0.005518   0.195776
C    5.420925  -1.410813   2.597844
O    5.871077  -1.238489  -1.865651
C    5.420037   2.756619   0.100533
C    6.634073   4.085909   1.883584
H    1.200864   0.642242  -1.981000
H    0.732080   0.671911   1.343973
H    1.219308  -2.214513  -0.305229
H    4.535872  -0.609645   4.288431
H    7.477325  -1.389667   2.850293
H    4.883336  -3.408386   2.474710
H    5.504470  -0.292700  -3.394704
H    4.916841   3.760668  -1.624673
H    7.224593   3.262461   3.665653
H    7.085169   6.065492   1.581587

