%chk=mol_6910.chk
# wB97XD/Def2SVP opt pop=full gfinput

C 6 H 13 N 1

1 2
C    1.035494   0.528462   0.699463
C    3.410748   0.142107  -0.875605
C    5.514863   1.959325  -0.169112
C    6.805565   1.554035   2.365616
C    8.053616  -1.029353   2.593252
C    7.083620   3.078402  -2.295223
N    5.185390   4.593678  -1.012478
H   -0.419519  -0.832651   0.139405
H    0.266130   2.431227   0.430782
H    1.407430   0.268039   2.714384
H    2.908307   0.364245  -2.874236
H    4.062741  -1.810773  -0.671835
H    5.438613   1.800758   3.900433
H    8.269403   2.995178   2.658221
H    6.639232  -2.535824   2.701571
H    9.194255  -1.120362   4.314056
H    9.279991  -1.414233   0.975231
H    6.650740   2.559502  -4.228357
H    9.038296   3.579633  -1.958115
H    5.994079   5.830769   0.230717

