%chk=mol_1649.chk
# wB97XD/Def2SVP opt freq pop=full gfinput

C 6 H 13 N 1

1 2
C    1.07413960  -0.00792000   0.19175993
N    2.51726913   0.01430000  -0.00504000
C    3.15338874   1.03961957   0.85697967
C    4.26049852  -0.00268000   1.18856955
C    4.67874861  -0.04206999   2.65373921
C    5.47417784   0.03905999   0.25792992
C    3.17689872  -1.04784966   0.79254973
H    0.64209974  -0.87576962  -0.31863987
H    0.62355977   0.88654965  -0.25276992
H    0.77189970  -0.05027998   1.24553955
H    2.56236887   1.36272943   1.72452939
H    3.48879862   1.93462932   0.32261986
H    3.81121874  -0.07138997   3.32163882
H    5.26831770   0.84324968   2.91462898
H    5.28756762  -0.92836964   2.86179876
H    5.18158817   0.06517997  -0.79727972
H    6.10552788  -0.84385973   0.40411985
H    6.08300781   0.92797965   0.45435986
H    3.53226876  -1.90018928   0.20418993
H    2.59453893  -1.43714941   1.63829947

