%chk=mol_7084.chk
# wB97XD/Def2SVP opt freq pop=full gfinput

C 6 H 7 N 1

1 2
C    1.04669964  -0.31435987   0.38890985
C    2.51157904  -0.01464000   0.31951988
C    3.13901877   1.13798952   0.00000000
C    2.42507911   2.36887908  -0.32732987
C    2.97734880   3.53177881  -0.70471972
C    4.54501867   1.13798952   0.00000000
N    5.69602823   1.13798952   0.00000000
H    0.82637972  -1.19172955  -0.22769992
H    0.40744984   0.49728981   0.03866998
H    0.76729971  -0.54743981   1.42087948
H    3.13096905  -0.88129967   0.56288981
H    1.34099948   2.35171914  -0.25642991
H    4.04855824   3.67616868  -0.81144971
H    2.34952903   4.39111853  -0.92288965

