%chk=mol_0177.chk
# wB97XD/Def2SVP opt freq pop=full gfinput

C 4 H 9 N 1

1 2
C    2.94522882  -1.07509959  -0.39615986
N    2.31520915   0.13268995   0.12093996
C    3.24488878   1.26334953   0.17567994
C    3.39838886   2.14835930  -1.02807963
C    2.67811918   2.65478897   0.18785994
H    2.20904922  -1.88342929  -0.43804985
H    3.77056861  -1.39929950   0.24573991
H    3.32455873  -0.91865963  -1.41094947
H    1.93399930  -0.05907998   1.04754961
H    4.13214827   1.10499954   0.78614974
H    2.80785894   1.92549920  -1.90915930
H    4.38273811   2.54686904  -1.24057961
H    3.17393899   3.39903855   0.79892975
H    1.60317934   2.77634883   0.12175995

