%chk=mol_0249.chk
# wB97XD/Def2SVP opt freq pop=full gfinput

C 6 H 12

1 2
C    2.31628919  -0.45559984  -1.45629942
C    2.47335911   0.04251998  -0.02915999
C    3.25337887   1.34815955  -0.00171000
C    2.52961922   2.62715912  -0.50547981
C    3.25644875   3.39277887   0.61781979
C    3.34034872   2.05409932   1.37844944
H    1.77276933  -1.40552938  -1.47063947
H    3.29244876  -0.61251974  -1.92750931
H    1.76135933   0.26390991  -2.06744909
H    3.00281906  -0.71529973   0.55902982
H    1.48330939   0.16990994   0.42294985
H    4.24891853   1.22984958  -0.45542982
H    1.43974948   2.60861897  -0.38903987
H    2.77298880   2.93959880  -1.52427936
H    4.23272848   3.79318857   0.31993988
H    2.68030906   4.18263865   1.10645962
H    4.26320839   1.88596928   1.93980932
H    2.48433900   1.87165928   2.03863931

