%chk=mol_1548.chk
# wB97XD/Def2SVP opt freq pop=full gfinput

C 5 H 12 N 2

1 2
C    1.49082947  -0.34736988  -0.17616993
C    2.56208920   0.47975981  -0.86796969
N    2.78604913   1.73735940  -0.15107994
C    1.96204925   2.87173891  -0.55936974
C    2.65910888   3.67551875  -1.64462948
C    3.72615862   1.80754936   0.84415966
N    4.09953833   2.82017875   1.53868937
H    1.33858943  -1.29117954  -0.70834976
H    0.53524983   0.18594992  -0.14992994
H    1.77416933  -0.57790983   0.85595965
H    2.26159906   0.67795974  -1.90374923
H    3.49361873  -0.09619996  -0.92463964
H    1.73492932   3.51539874   0.29770988
H    0.99239963   2.52414918  -0.93491960
H    3.63189864   4.04588842  -1.30447960
H    2.04676914   4.53586817  -1.93248928
H    2.82828903   3.06589866  -2.53890896
H    4.21168852   0.83545965   1.04746962
H    3.58842850   3.65239859   1.24956954

