%chk=mol_0186.chk
# wB97XD/Def2SVP opt pop=full gfinput

C 3 H 4 N 2

1 2
N    1.812039  -0.094146  -0.220191
C    4.004726  -0.027741  -0.158094
C    6.718090  -0.000548  -0.020088
C    8.202299  -1.455694  -1.972156
N    8.215943   1.295974  -1.968244
H    7.489948   0.084679   1.876781
H    7.205450  -2.339235  -3.528572
H    9.929358  -2.389766  -1.396243
H    9.852465   1.988804  -1.215755

