%chk=mol_5433.chk
# wB97XD/Def2SVP opt pop=full gfinput

C 4 H 8 N 2 O 1

1 2
C    9.996557  -1.661447  -1.854313
O   11.096699   0.669795  -1.091695
N    9.169952   2.480303  -0.894672
C   10.156635   4.586176  -0.156507
C    8.448776   6.762215   0.165011
C    7.055217   7.112778   2.619614
N    9.287267   8.623028   2.044684
H   11.495450  -3.075832  -1.997176
H    9.094420  -1.456204  -3.703769
H    8.614335  -2.294033  -0.451985
H   12.192513   4.835374   0.224027
H    7.609833   7.511208  -1.546193
H    7.271137   5.688000   4.073966
H    5.249206   8.072834   2.587526
H    8.785450  10.406665   1.501387

