%chk=mol_2913.chk
# wB97XD/Def2SVP opt pop=full gfinput

C 6 H 10 O 1

1 2
C    1.214432  -0.256663   0.723255
C    4.030616  -0.068994   0.687785
C    5.307315   2.006341  -0.020428
C    8.132153   2.215855  -0.039817
O    8.811623   4.192055   1.664735
C   11.325696   4.636557   2.031720
C   13.319527   3.489398   0.981845
H    0.602558  -1.865556  -0.423752
H    0.305701   1.446453  -0.021241
H    0.552707  -0.550874   2.660923
H    5.056907  -1.738038   1.309297
H    4.285483   3.686346  -0.616391
H    8.757558   2.691216  -1.957019
H    9.002410   0.429629   0.548965
H   11.546378   6.154026   3.394175
H   13.155291   1.975463  -0.380912
H   15.219646   4.074363   1.496606

