%chk=mol_3123.chk
# wB97XD/Def2SVP opt freq pop=full gfinput

C 5 H 12 O 2

1 2
C    1.06286967  -0.23239991  -0.30506989
C    2.56557918  -0.15447994  -0.06981997
C    3.08967900   1.28501952  -0.12144995
O    2.45603919   2.07282925   0.88775969
C    4.61044836   1.33237946   0.07655997
C    5.16607761   2.75211906  -0.01636999
O    4.69885826   3.55453873   1.05910957
H    0.73254973  -1.27560949  -0.28641990
H    0.79708976   0.19063993  -1.27868950
H    0.50979978   0.30848989   0.46879983
H    3.07717872  -0.76369977  -0.82429969
H    2.78142905  -0.59570974   0.91129965
H    2.83534908   1.73229945  -1.08950961
H    2.54197907   1.59343934   1.73267925
H    5.10094833   0.70531976  -0.67662972
H    4.85420799   0.93030965   1.06822968
H    4.88292837   3.22965884  -0.95976967
H    6.25879765   2.72956896   0.03773998
H    3.72092843   3.47372866   1.05738962

