%chk=mol_4427.chk
# wB97XD/Def2SVP opt freq pop=full gfinput

C 5 H 6 N 2

1 2
C    1.39417946   0.78985965   0.13318995
C    2.57755899  -0.22197992   0.02362999
C    3.43940878   0.95684969  -0.00746000
C    2.42649913   1.82518935   0.08733996
N    2.92509890   3.05946875   0.08345997
N    4.29077864   3.01127887  -0.01534999
C    4.58805799   1.69078934  -0.07084998
H    0.79697973   0.80507970   1.05142963
H    0.67452973   0.85043967  -0.69065976
H    2.65366888  -0.84744966  -0.87276965
H    2.77664900  -0.89116967   0.86814970
H    2.46870923   3.96456838   0.13898994
H    5.62292814   1.38755953  -0.15313993

