%chk=mol_4056.chk
# wB97XD/Def2SVP opt pop=full gfinput

C 5 H 7 N 1 O 1

1 2
C    1.739266   0.115991   0.017952
C    4.531601  -0.054519  -0.016214
C    6.244544   1.912233   0.000170
O    8.652546   1.026499  -0.055218
C    8.502955  -1.526842  -0.112836
N   10.692203  -2.781412  -0.176217
C    6.024371  -2.293731  -0.081731
H    1.104356   2.084765   0.048245
H    0.977593  -0.829854   1.692533
H    0.940573  -0.788772  -1.662298
H    6.061882   3.946636   0.041687
H   10.760554  -4.634270   0.298123
H   12.290666  -1.798604   0.216033
H    5.363591  -4.224653  -0.117239

