%chk=mol_5259.chk
# wB97XD/Def2SVP opt pop=full gfinput

C 6 H 9 N 1

1 2
C    2.066453   0.134964  -0.755210
C    4.477914  -0.326979   0.621247
C    6.626381  -1.876177  -0.418480
C    6.975017  -2.296263  -3.118294
C    7.302034  -0.137005  -4.385979
C    7.147303   2.021705  -2.558840
N    6.868512   0.913229   0.011565
H    1.300831   1.985800  -0.236839
H    0.673423  -1.294632  -0.208739
H    2.233297   0.068049  -2.812706
H    4.116013  -0.496885   2.634713
H    7.722895  -3.039549   0.861243
H    6.984409  -4.158418  -3.959808
H    7.602614   0.053479  -6.392131
H    8.906091   3.110451  -2.622411
H    5.585350   3.300237  -3.013622

