%chk=mol_4766.chk
# wB97XD/Def2SVP opt freq pop=full gfinput

C 4 H 10 N 2 O 1

1 2
C    1.61134934  -0.43442982  -1.06177950
C    2.57834911  -0.10376997   0.05833998
N    3.59189868   0.83137971  -0.38411984
C    4.74000835   0.99218959   0.35184985
O    5.02671814   0.34014985   1.34530950
N    5.52933788   1.97778916  -0.18706992
C    6.83990765   2.21832919   0.36176986
H    0.84592968  -1.13373959  -0.71270972
H    2.13628912  -0.89206970  -1.90647924
H    1.11193955   0.46788982  -1.42887950
H    3.06225896  -1.01737964   0.42163983
H    2.04789925   0.35393986   0.90081966
H    3.26307869   1.68388939  -0.81304967
H    5.42254782   2.09770918  -1.18314958
H    6.78187752   2.30549932   1.45039952
H    7.23175764   3.14370894  -0.06694997
H    7.49321699   1.38155949   0.09848996

