%chk=mol_3293.chk
# wB97XD/Def2SVP opt pop=full gfinput

C 5 H 8 O 2

1 2
C   12.533760  -0.186365   2.367619
C    9.708657  -0.395180   2.810930
O    8.356615   0.136627   0.521678
C    7.863377   2.612622   0.082732
O    8.461456   4.400397   1.409037
C    6.456287   2.789916  -2.324231
C    5.731388   5.034589  -3.241466
H   13.582898  -0.709592   4.069620
H   13.061276   1.741250   1.834452
H   13.119367  -1.422208   0.814944
H    9.090017   0.840078   4.354534
H    9.232767  -2.333547   3.356664
H    6.038128   1.044773  -3.307966
H    6.152325   6.785326  -2.253253
H    4.698407   5.163639  -5.006924

