%chk=mol_4163.chk
# wB97XD/Def2SVP opt freq pop=full gfinput

C 5 H 7 N 1 O 1

1 2
C    1.05488956   0.00042000   0.11312996
C    2.53964901   0.01464999  -0.05803998
N    3.22829890  -1.05886960  -0.30175990
O    4.59622812  -0.67551976  -0.39882985
C    4.70869827   0.75502968  -0.27744991
C    3.34219861   1.23592949   0.02745999
C    2.92119884   2.46842909   0.32743987
H    0.67279977  -1.01931965   0.01117000
H    0.58997977   0.62840974  -0.65180975
H    0.79117972   0.37781987   1.10462952
H    5.07666826   1.14944947  -1.22846961
H    5.41699791   0.97965968   0.52420980
H    3.61840868   3.29857874   0.36934987
H    1.88007939   2.68449903   0.54266977

