%chk=mol_5671.chk
# wB97XD/Def2SVP opt freq pop=full gfinput

C 6 H 9 N 1

1 2
C    0.93419963  -0.01666999   0.08738997
C    2.45382905   0.00164000  -0.03683998
C    3.15632868   1.06127954   0.86751968
C    4.20988846  -0.00574000   1.22297955
C    3.17864871  -1.07910967   0.82389969
C    2.86619902   0.03451999  -1.43331945
N    3.19564867   0.06063998  -2.54572892
H    0.61722976  -0.04122999   1.13648951
H    0.50797981  -0.89848965  -0.40369985
H    0.48950982   0.87534970  -0.36770985
H    2.56267905   1.38495946   1.73183942
H    3.54651856   1.95355928   0.36858985
H    5.09587812   0.01664999   0.57812977
H    4.53309822  -0.02367999   2.26688910
H    3.58708882  -1.94192922   0.28907990
H    2.59216905  -1.45002937   1.67398942

