%chk=mol_2419.chk
# wB97XD/Def2SVP opt freq pop=full gfinput

C 5 H 6 O 2

1 2
C    1.12435961  -0.06795998   0.15217994
C    2.43895912   0.02365999  -0.06136997
C    3.20251870   1.30743957  -0.07072997
C    4.48662853   0.79245973  -0.61627972
O    5.43951797   1.50736940  -0.91097963
C    4.48973799  -0.69942969  -0.73333973
O    3.17965889  -1.11252952  -0.33661988
H    0.62608975  -1.03292966   0.12835994
H    0.51523983   0.80728972   0.35217988
H    3.35685873   1.69581938   0.93792963
H    2.76836896   2.04826927  -0.74507970
H    4.66630793  -1.00460958  -1.76733935
H    5.22566795  -1.13495958  -0.05320998

