%chk=mol_2207.chk
# wB97XD/Def2SVP opt freq pop=full gfinput

C 5 H 8 O 2

1 2
C    1.77094936   0.13158995  -0.68428975
C    1.76398933  -0.12485995   0.80088973
C    0.48577982  -0.00526000   0.05055998
O   -0.31890988   1.15957963   0.25295991
C   -1.64757943   0.72687978  -0.06948997
C   -1.63310933  -0.77456975   0.18412994
O   -0.30188987  -1.18166959  -0.15186994
H    2.05364919   1.11846960  -1.02811968
H    2.06718922  -0.67834979  -1.33844960
H    2.05484939  -1.10778964   1.14867949
H    2.04034925   0.68903971   1.45911944
H   -2.38444924   1.25166953   0.54425979
H   -1.82664931   0.95017970  -1.12703955
H   -2.36710930  -1.31086946  -0.42119983
H   -1.79645932  -0.99908960   1.24277949

