%chk=mol_4879.chk
# wB97XD/Def2SVP opt pop=full gfinput

C 4 H 9 N 1 O 2

1 2
C    2.335796  -2.089243   0.531656
C    4.285502  -0.573607  -0.949587
O    4.517900  -1.639337  -3.426716
C    3.532427   2.203080  -1.155171
C    5.715023   3.833385  -2.022045
N    6.786819   3.145317  -4.259651
O    6.418209   5.722620  -0.881501
H    2.153211  -1.393597   2.471441
H    2.870267  -4.089122   0.594168
H    0.475852  -1.999557  -0.377983
H    6.131840  -0.755456  -0.031124
H    2.823478  -2.000918  -4.053841
H    2.928509   2.919381   0.693775
H    1.973876   2.465715  -2.493853
H    6.547391   1.349472  -4.904765
H    8.342725   4.102293  -4.819255

