%chk=mol_5627.chk
# wB97XD/Def2SVP opt freq pop=full gfinput

C 6 H 9 N 1

1 2
C    0.93403965   0.00080000  -0.16043994
C    2.41213894   0.02348999  -0.01407999
C    3.22844887   1.09494960   0.01142000
C    4.64766836   0.75595975   0.16387995
N    5.31745815  -0.00927000  -0.87462968
C    4.67300844  -0.76189971   0.19650993
C    3.23691869  -1.24350953   0.09574997
H    0.58966976  -0.98843968  -0.48434982
H    0.60304976   0.73009974  -0.90180963
H    0.45620984   0.23034991   0.80179965
H    2.89016891   2.12264919  -0.05613998
H    5.24567842   1.29759955   0.88449967
H    4.75376797  -0.01888999  -1.72633934
H    5.29671764  -1.27714956   0.90955961
H    2.95809889  -1.80532932   0.99402958
H    3.10573888  -1.87808931  -0.78703970

