%chk=mol_3617.chk
# wB97XD/Def2SVP opt pop=full gfinput

C 5 H 6 O 2

1 2
O    1.982436  -0.370008   0.255415
C    4.262882  -0.127330   0.138063
O    5.995345  -2.067360   0.220852
C    8.397735  -0.704906   0.007653
C    8.154168   1.377346  -2.130780
C    6.107141   2.252573  -0.133547
C    8.322467   1.695198   1.797016
H   10.063718  -1.915370   0.034242
H    7.420879   0.720420  -3.947033
H    9.777084   2.623015  -2.441129
H    5.307976   4.138481  -0.251919
H    9.957270   2.963355   1.764343
H    7.750693   1.343369   3.750823

