%chk=mol_3733.chk
# wB97XD/Def2SVP opt freq pop=full gfinput

C 6 H 8 O 1

1 2
O    2.53733897  -0.53176975  -1.46836948
C    2.28234911  -0.14480995  -0.12191995
C    2.91968894   1.21405959   0.16631994
C    4.42262840   1.13888955   0.18826994
C    5.17688799   1.45914948   1.24909949
C    6.59322786   1.37328947   1.20096946
C    7.79102707   1.30381942   1.16175961
H    2.16251922  -1.42155945  -1.58412933
H    2.67069912  -0.91823965   0.54929978
H    1.19720948  -0.08020997   0.00771000
H    2.54238915   1.58928943   1.12476957
H    2.62772918   1.93148935  -0.60964978
H    4.89513826   0.80739969  -0.73563975
H    4.72318792   1.79675937   2.17586923
H    8.85371685   1.24261951   1.12212956

