%chk=mol_5099.chk
# wB97XD/Def2SVP opt freq pop=full gfinput

C 4 H 10 N 2 O 1

1 2
C    1.29570949  -0.16707993   0.38245985
N    2.69768882   0.08576997   0.68754977
C    3.09199882   1.48081934   0.42273983
C    2.38243914   2.49149895   1.31998944
C    4.58313799   1.58263946   0.69474971
N    5.41679811   1.88240921  -0.25056991
O    6.71067762   1.91082931   0.28222990
H    1.09165955  -1.23793960   0.48281983
H    1.04365969   0.12578996  -0.64346975
H    0.63076973   0.35028985   1.08060968
H    3.26763892  -0.51953983   0.09244996
H    2.91683888   1.72975934  -0.63091975
H    2.48057914   2.22598910   2.37947893
H    1.31700945   2.56346917   1.08127964
H    2.81627893   3.49031878   1.19518960
H    4.92155838   1.38737953   1.72891927
H    7.25278711   2.14990926  -0.49293980

