%chk=mol_0246.chk
# wB97XD/Def2SVP opt pop=full gfinput

C 4 H 8 N 2

1 2
C    0.364169   1.755745  -0.439191
N   -1.446434  -0.160797   0.339716
C    1.207592  -0.922167   0.069372
C    2.650738  -1.693213   2.433646
C    2.451485  -4.311523   3.549057
N    4.719799  -3.525227   2.208693
H    0.257834   2.395228  -2.379619
H    0.796425   3.196623   0.944239
H   -2.472555  -0.809785  -1.161048
H    1.601581  -2.066000  -1.598141
H    2.979229  -0.179770   3.787786
H    1.255496  -5.673790   2.598638
H    2.589152  -4.517485   5.579757
H    6.136829  -3.093595   3.445500

