%chk=mol_6362.chk
# wB97XD/Def2SVP opt pop=full gfinput

C 5 H 5 N 1 O 1

1 2
O    1.527862   0.799411   0.607585
N    4.092750   0.160457   0.720609
C    5.427407   2.174905   0.363942
C    8.210955   2.100223   0.377095
C    9.520308   4.230247   0.000000
C   12.177263   4.230247   0.000000
C   14.426339   4.230247   0.000000
H    0.704565  -0.824620   0.895144
H    4.536741   4.035000   0.034658
H    9.094817   0.280964   0.699142
H    8.572138   6.022595  -0.317266
H   16.439560   4.227393   0.000510

