%chk=mol_2893.chk
# wB97XD/Def2SVP opt pop=full gfinput

C 5 H 8 O 2

1 2
C    5.705801  -1.042297   2.192177
C    5.013330   0.462170  -0.159531
C    5.411061   3.262461   0.186157
C    3.469707   4.895241   0.349977
C    8.081017   4.140258   0.102877
O    8.532303   6.223378   1.496814
O    9.741274   3.022825  -1.042845
H    5.359036  -3.056084   1.872567
H    4.570454  -0.449660   3.818078
H    7.703393  -0.811845   2.679461
H    3.032481   0.070827  -0.633039
H    6.121976  -0.217942  -1.773073
H    1.528335   4.218662   0.327565
H    3.712121   6.931516   0.417138
H    7.113647   6.730770   2.554891

