%chk=mol_1372.chk
# wB97XD/Def2SVP opt freq pop=full gfinput

C 5 H 12 N 2

1 2
C    2.01449919  -0.00765000   0.61542976
C    2.78600883  -0.10128997  -0.70573974
C    2.14431906  -1.11602962  -1.67371929
N    2.11525917  -2.47453904  -1.13122952
C    2.84640884   1.26494944  -1.35016942
C    4.01328850   2.17983937  -1.07418954
N    3.85668850   1.53284943  -2.37279892
H    2.46092892   0.74544972   1.27281952
H    2.01885939  -0.96182960   1.15123951
H    0.97176963   0.28328988   0.44457984
H    3.80550861  -0.43938985  -0.47430980
H    2.70153904  -1.12993956  -2.61787915
H    1.12000954  -0.80923969  -1.91537929
H    3.07092881  -2.77678895  -0.94187969
H    1.75777936  -3.10840869  -1.84519935
H    1.86899936   1.70679927  -1.51159942
H    4.83506823   1.81797934  -0.46735981
H    3.84163857   3.24804878  -1.03838968
H    3.50405860   2.19466901  -3.06772900

