%chk=mol_0454.chk
# wB97XD/Def2SVP opt pop=full gfinput

C 5 H 11 N 1

1 2
C    2.221090   0.180715  -0.290130
N    4.969356   0.115103  -0.097415
C    6.204481  -1.204020  -2.167270
C    6.412294   1.653435  -1.912214
C    5.159859   3.271853  -3.884427
C    8.852460   2.735700  -0.909809
H    1.489614   1.819277   0.736653
H    1.444469  -1.511611   0.612290
H    1.466125   0.234723  -2.213606
H    5.044908  -1.997818  -3.656885
H    7.817325  -2.355166  -1.646594
H    3.711687   2.265933  -4.966389
H    6.562773   3.934051  -5.258069
H    4.291058   4.934831  -3.012299
H    9.682277   1.556738   0.576914
H    8.529373   4.620305  -0.117654
H   10.242523   2.900503  -2.433703

