%chk=mol_3694.chk
# wB97XD/Def2SVP opt pop=full gfinput

C 6 H 10 O 1

1 2
O    3.406836  -0.863000   1.968660
C    5.131532  -0.407878  -0.030292
C    5.776912   2.331809   0.000643
C    8.138105   3.258322   0.111607
C    8.807427   5.944228   0.161609
C   10.872993   6.863410  -1.568737
C    8.177129   7.578520  -2.081647
H    3.031196  -2.659317   1.942261
H    4.220477  -0.901248  -1.819315
H    6.794170  -1.608365   0.235573
H    4.190430   3.634397  -0.072528
H    9.711888   1.936856   0.213879
H    8.691247   6.811140   2.018190
H   11.765227   5.537559  -2.850161
H   12.132760   8.316609  -0.863076
H    7.607508   9.512654  -1.718101
H    7.252542   6.730581  -3.700991

