%chk=mol_4800.chk
# wB97XD/Def2SVP opt freq pop=full gfinput

C 4 H 10 N 2 O 1

1 2
C    4.24981880  -1.20645964   0.69593972
C    3.19999862  -0.16969994   0.32676986
N    3.79989862   1.13146949   0.05290998
O    4.20679855   1.81279922   1.21333957
C    3.27943897   2.88131905   1.41373956
C    4.62027836   1.34459949  -1.02467954
N    5.53622818   2.24433923  -1.14007962
H    3.77165866  -2.16375923   0.92546964
H    4.82664824  -0.89356965   1.57159948
H    4.95213842  -1.36936951  -0.12816995
H    2.47502899  -0.07572997   1.14394963
H    2.64088893  -0.50652981  -0.55377984
H    3.60755849   3.45697856   2.28300929
H    2.27815914   2.48745918   1.61361945
H    3.25832891   3.54814863   0.54452980
H    4.42884827   0.65201974  -1.86215925
H    5.55310822   2.74703884  -0.24508990

