%chk=mol_1099.chk
# wB97XD/Def2SVP opt pop=full gfinput

C 4 H 9 N 1 O 1

1 2
N    3.509959  -1.768198  -1.790704
C    3.835124  -0.434561   0.616089
C    5.345601   2.020212   0.298199
O    7.886281   1.390517  -0.395973
C    9.530305   3.347026  -0.754152
C    9.124713   5.832092  -0.541766
H    2.858589  -3.546959  -1.449118
H    5.252437  -1.976502  -2.598336
H    4.824830  -1.689377   1.932113
H    1.968452  -0.009600   1.398397
H    5.353141   3.033294   2.106005
H    4.472490   3.207640  -1.159706
H   11.364284   2.596257  -1.277587
H    7.315526   6.630350  -0.028384
H   10.654220   7.151480  -0.899699

