%chk=mol_4022.chk
# wB97XD/Def2SVP opt freq pop=full gfinput

C 4 H 6 N 2 O 1

1 2
C    1.01897967   0.00728000  -0.13740996
C    2.51648903   0.01277999   0.08372997
C    3.17085862  -1.17396951  -0.56429982
N    4.04142857  -0.87394971  -1.47485948
N    4.06275845   0.49304983  -1.53460944
C    3.19629884   1.13072956  -0.65868974
O    3.01975894   2.32663918  -0.52877980
H    0.55934978   0.90379965   0.29165989
H    0.55973983  -0.87163967   0.32675987
H    0.76967973  -0.01356000  -1.20451951
H    2.77957892   0.03862998   1.14500964
H    2.92229891  -2.20048904  -0.26057991
H    4.66874790   0.97829968  -2.18577909

