%chk=mol_3151.chk
# wB97XD/Def2SVP opt freq pop=full gfinput

C 5 H 10 O 2

1 2
C    2.74801898  -1.60610938  -0.65037972
C    2.02966928  -0.33004990  -0.24235991
O    1.17248952  -0.61659974   0.85961968
C    2.97896886   0.77882969   0.13915995
C    3.94137859   0.53805983   1.26317954
C    3.27096891   1.88318932  -0.85328972
O    2.33269906   2.06351924   0.21686992
H    3.44648886  -1.42444944  -1.47334945
H    2.02404928  -2.36578894  -0.96530962
H    3.30436873  -2.03866935   0.18857993
H    1.38848948  -0.01282000  -1.07336962
H    0.80317968   0.24177991   1.13748956
H    4.45076799   1.46039951   1.56364942
H    4.71033812  -0.17996992   0.96233964
H    3.42485857   0.14396995   2.14387941
H    2.87552905   1.80713940  -1.85891938
H    4.21396828   2.41257906  -0.78646976

