%chk=mol_5565.chk
# wB97XD/Def2SVP opt freq pop=full gfinput

C 5 H 7 N 1 O 1

1 2
N    0.93466961   0.11684995   0.09926996
C    2.39070892  -0.00580000  -0.07250997
C    3.12530899   0.95065969   0.87743968
O    3.94258833  -0.14424995   1.38130951
C    2.97688890  -1.10348964   0.84758967
C    3.66558862  -2.18700933   0.18166994
C    4.23566818  -3.09100866  -0.36829987
H    0.41317984  -0.65313971  -0.32099986
H    0.54666984   0.96697962  -0.30936989
H    2.74323893   0.00751000  -1.10801959
H    2.54633904   1.40706956   1.68765938
H    3.73406863   1.71415937   0.38488987
H    2.31723928  -1.44678950   1.65553939
H    4.74893856  -3.89108849  -0.84868968

