%chk=mol_0075.chk
# wB97XD/Def2SVP opt pop=full gfinput

C 4 H 8 O 1

1 2
C    4.220269  -1.591735  -0.467651
O    6.528966  -0.224405  -0.412017
C    6.123884   2.377635   0.139500
C    8.648520   3.646113   0.143279
C    9.263060   5.645746  -1.281707
H    4.643775  -3.568559  -0.896089
H    2.973314  -0.850698  -1.942034
H    3.279828  -1.502105   1.371922
H    5.258938   2.566910   2.011746
H    4.860281   3.209001  -1.276756
H   10.058597   2.842072   1.401421
H    7.924264   6.500337  -2.580119
H   11.144679   6.456949  -1.187693

