%chk=mol_4430.chk
# wB97XD/Def2SVP opt freq pop=full gfinput

C 5 H 11 N 1 O 1

1 2
C    0.57171983  -0.81202972   0.08733996
C    2.08181930  -0.62782979  -0.07734997
C    2.61385894  -1.55576944  -1.16717958
C    2.43487906   0.82909971  -0.39584985
O    2.03487921   1.66284943   0.69406974
N    2.35627913   2.99171901   0.37859985
C    1.98990929   3.74506855   1.35866952
H    0.18477993  -0.19729993   0.90662962
H    0.33137986  -1.85600936   0.31597987
H    0.03614999  -0.53444982  -0.82705969
H    2.55131912  -0.89992964   0.87648970
H    2.16668940  -1.32453954  -2.14014912
H    2.39008904  -2.60174894  -0.93163961
H    3.70074868  -1.46060944  -1.26250958
H    1.92716932   1.15930963  -1.31061959
H    3.51746869   0.93186963  -0.53851980
H    2.15509915   4.83179808   1.30727959
H    1.50741935   3.35329866   2.27013898

