%chk=mol_6541.chk
# wB97XD/Def2SVP opt pop=full gfinput

C 4 H 8 N 2 S 1

1 2
C    1.321561  -0.111777   0.044031
C    4.079238  -0.060169   0.651237
C    5.687396   1.656931  -0.277166
N    8.199994   1.637561   0.355287
C   10.071900   3.216975  -0.413151
N    9.546008   4.986722  -2.173563
S   12.952995   3.018384   0.821615
H    0.834314  -1.905524  -0.860543
H    0.771462   1.423663  -1.227472
H    0.216128   0.062607   1.782068
H    4.745990  -1.529129   1.925423
H    5.031358   3.134829  -1.538521
H    8.777136   0.333329   1.639356
H    8.128827   4.707969  -3.417305
H   11.019012   6.031193  -2.809134

