%chk=mol_6041.chk
# wB97XD/Def2SVP opt pop=full gfinput

C 4 H 9 N 1 O 2

1 2
O    1.908094   0.068540  -0.089271
C    4.590485   0.033883  -0.007219
C    5.669972   2.087410   1.689925
N    8.244270   1.204757   2.269070
C    7.986568  -1.549727   2.625604
C    5.597860  -2.384627   1.211617
O    6.087337  -4.245629  -0.674198
H    1.391405  -1.497362  -0.912076
H    5.290156   0.242206  -1.948610
H    4.563065   2.295847   3.429040
H    5.692800   3.929704   0.750996
H    9.367486   1.534722   0.735727
H    9.689703  -2.532044   1.980112
H    7.769307  -1.929958   4.650200
H    4.215866  -3.186702   2.527565
H    7.496959  -3.662441  -1.701150

