%chk=mol_4211.chk
# wB97XD/Def2SVP opt freq pop=full gfinput

C 4 H 6 N 2 O 1

1 2
C    1.00285959   0.04100998   0.00648000
C    2.52287912   0.04354998   0.07246997
O    2.99883890   1.24657953  -0.50796980
C    3.78788877   1.10713959  -1.59375942
N    4.18977833   0.00905000  -2.13753915
N    3.82477856  -1.22443962  -1.59459949
C    3.04973888  -1.21224964  -0.56200981
H    0.59440976   0.94096965   0.47947982
H    0.58189982  -0.83909965   0.50396979
H    0.65569973   0.04166998  -1.03341961
H    2.83373880   0.03323999   1.12233961
H    4.07432842   2.09145927  -1.99339926
H    2.75267887  -2.17169905  -0.10900996

