%chk=mol_3422.chk
# wB97XD/Def2SVP opt pop=full gfinput

C 5 H 10 O 2

1 2
C    4.565049  -0.979218   0.168186
O    6.983936   0.194415   0.280832
C    7.088703   2.797059   0.252165
C    5.094720   4.365494   0.159587
C    9.771811   3.805039   0.305399
C   11.181358   3.056311   2.717275
O   11.774241   0.428004   2.737476
H    4.852987  -3.026000   0.185722
H    3.583733  -0.488230  -1.585745
H    3.426848  -0.481672   1.822905
H    3.155295   3.711989   0.107223
H    5.352933   6.402241   0.129503
H    9.767579   5.871455   0.155562
H   10.775766   3.067555  -1.351645
H   10.080630   3.496938   4.412964
H   12.971553   4.084945   2.830394
H   10.238668  -0.448300   2.201077

