%chk=mol_5347.chk
# wB97XD/Def2SVP opt pop=full gfinput

C 5 H 9 N 1 O 1

1 2
C    2.612943  -0.446486  -0.563138
O    5.286528  -0.200254  -0.696931
C    6.133938   2.111637   0.414171
C    9.015411   2.287816   0.202314
C    9.874726   2.361629  -2.555363
C    9.910215   4.546511   1.553090
N   10.593370   6.333946   2.624111
H    2.080570  -2.238702  -1.442107
H    1.692760   1.093377  -1.591622
H    1.986291  -0.463644   1.407222
H    5.561049   2.146426   2.407190
H    5.229704   3.712348  -0.546358
H    9.848496   0.598646   1.069491
H    9.071970   3.989061  -3.554102
H    9.304294   0.646929  -3.563192
H   11.936852   2.508007  -2.682050

