%chk=mol_3197.chk
# wB97XD/Def2SVP opt freq pop=full gfinput

C 6 H 6 O 1

1 2
C    0.99940962  -0.05796998  -0.00210000
C    2.51999903   0.00000000   0.00000000
O    3.00419903  -0.68161970  -1.15311956
C    3.00201893   1.36116946   0.00000000
C    3.39929867   2.48306894   0.00000000
C    3.91025853   3.92718863  -0.00048000
C    4.31120825   5.05804825  -0.00073000
H    0.57745975   0.43410984   0.88046968
H    0.65661973  -1.09829962  -0.01995999
H    0.58447975   0.42483982  -0.89488965
H    2.89795899  -0.53760982   0.87568963
H    2.76521897  -0.14119995  -1.92539930
H    4.66872835   6.06121778  -0.00053000

