%chk=mol_6004.chk
# wB97XD/Def2SVP opt freq pop=full gfinput

C 6 H 13 N 1

1 2
C    1.04509962  -0.02822999  -0.02940999
C    2.56665897   0.00685000   0.02272999
C    3.07569885   1.13502955   0.91080970
C    4.48666859   0.68724972   1.22695947
C    4.37253857  -0.82586968   1.33459949
N    3.12506890  -1.20135963   0.65189976
C    3.33315873  -2.28343916  -0.30416989
H    0.68782973  -0.83842969  -0.67307979
H    0.65283978   0.91370964  -0.42732984
H    0.61150980  -0.17529994   0.96668965
H    2.97060895   0.14643994  -0.98930961
H    2.49069905   1.21700954   1.83549941
H    3.05681896   2.10576916   0.40544984
H    5.15306807   0.95171964   0.39678985
H    4.87522840   1.14735961   2.13987923
H    5.26853800  -1.30691946   0.92560965
H    4.29063845  -1.12206960   2.38668919
H    2.39071918  -2.57092905  -0.78188974
H    3.71336865  -3.17506886   0.20616992
H    4.04622841  -2.00789928  -1.09020960

