%chk=mol_5395.chk
# wB97XD/Def2SVP opt freq pop=full gfinput

C 4 H 11 N 1 O 2

1 2
C    1.20099950   1.74588931  -1.63630939
O    2.59800887   1.84137928  -1.38834941
C    2.93981886   1.32759953  -0.09735997
C    4.45255804   1.47783947   0.13595995
N    5.24730778   0.79574972  -0.91812962
C    4.87232828   2.95853877   0.17231993
O    6.28555775   3.03959870   0.36269987
H    0.99722964   2.16283917  -2.62636900
H    0.63928980   2.32030916  -0.89302969
H    0.88143963   0.69937974  -1.62458944
H    2.65935898   0.26873988  -0.04734998
H    2.38641906   1.87423933   0.67499977
H    4.72089815   1.01450968   1.09287965
H    4.90128803   1.15105951  -1.81678939
H    4.99075794  -0.19241993  -0.92733967
H    4.38519859   3.48441863   0.99887961
H    4.62774849   3.47671890  -0.76098973
H    6.63975763   2.30470920  -0.18110992

