%chk=mol_0637.chk
# wB97XD/Def2SVP opt pop=full gfinput

C 6 H 8

1 2
C    2.806281  -1.500783   0.159209
C    5.188961  -0.706380  -0.129692
C    5.870358   1.934021  -0.243038
C    8.261580   2.726629  -0.526251
C    8.939936   5.367824  -0.638803
C   11.323012   6.167386  -0.912946
H    2.380375  -3.506103   0.234855
H    1.231289  -0.197703   0.327338
H    6.694317  -2.098144  -0.287862
H    4.343876   3.302825  -0.086757
H    9.788744   1.358619  -0.681530
H    7.431386   6.757188  -0.491971
H   12.902030   4.867386  -1.067771
H   11.744988   8.173557  -0.987987

