%chk=mol_3284.chk
# wB97XD/Def2SVP opt freq pop=full gfinput

C 5 H 8 O 2

1 2
C    1.12024963  -1.07854962   0.24989991
C    2.40134907  -0.30989990  -0.02362999
O    3.09906864  -0.96984965  -1.07788968
C    2.10369921   1.14417958  -0.40689984
O    2.26788902   1.54103935  -1.56186950
C    1.62328935   2.05452919   0.67370975
C    1.33448946   3.33499861   0.41497982
H    0.56659985  -0.65884972   1.09564960
H    1.34085953  -2.12974930   0.46508983
H    0.46239981  -1.06463957  -0.62672979
H    3.05592895  -0.31814989   0.85355967
H    2.95094895  -0.42989984  -1.88216925
H    1.51991940   1.64305937   1.67082942
H    1.44034946   3.75352859  -0.58239979
H    0.98635960   3.99807858   1.20050955

