%chk=mol_6337.chk
# wB97XD/Def2SVP opt pop=full gfinput

C 4 H 4 N 2 O 1

1 2
O    5.427558  -1.956849   0.123418
N    4.080240  -0.047489   0.091992
C    5.417656   2.230670   0.057542
C    4.347958   4.600501   0.019162
C    6.360081   6.376314  -0.006690
C    8.590865   5.029015   0.016819
N    7.991160   2.505796   0.055898
H    2.345925   5.017317   0.010526
H    6.195392   8.415707  -0.038947
H   10.541819   5.642231   0.009203
H    9.225472   1.047796   0.080105

