%chk=mol_1438.chk
# wB97XD/Def2SVP opt freq pop=full gfinput

C 5 H 6 N 2

1 2
C    1.68152940   1.54964948  -1.45249951
C    2.56422925   1.28747952  -0.68030977
C    3.61483860   0.97284961   0.24706990
N    4.78342819   1.10451949  -0.27400988
N    5.75628757   0.80474967   0.61189979
C    6.86376762   0.23127991  -0.15605995
C    6.90041733   1.65942943   0.28694987
H    0.90664971   1.78415930  -2.14438939
H    3.37395859   0.65978974   1.27620947
H    6.70400763   0.01458999  -1.20557964
H    7.47577763  -0.48523983   0.37551984
H    7.53750706   1.92008924   1.12163961
H    6.76623774   2.43893909  -0.45356983

