%chk=mol_3475.chk
# wB97XD/Def2SVP opt freq pop=full gfinput

C 5 H 8 O 2

1 2
C    1.67262936   0.03654999  -1.00888968
O    3.00308895   0.13760994  -0.49864981
C    3.44684887   1.42276943  -0.35812989
O    2.78837895   2.41951919  -0.62302977
C    4.85785818   1.40338957   0.21107993
C    5.46960831   2.77597904   0.26442990
C    6.61905766   3.11709881  -0.33049989
H    1.42524946  -1.02432966  -1.10087955
H    1.60518944   0.49508980  -2.00015926
H    0.96186960   0.49939981  -0.31695989
H    5.46808815   0.73414975  -0.40663984
H    4.80734825   0.99922967   1.22803962
H    4.92007828   3.53275871   0.82335967
H    7.20373726   2.40510893  -0.90516967
H    7.00034761   4.13193846  -0.25684988

