%chk=mol_5723.chk
# wB97XD/Def2SVP opt freq pop=full gfinput

C 4 H 6 N 2 O 1

1 2
N    1.01628959  -0.01782999   0.03680998
C    2.46999907   0.00000000   0.00000000
C    2.95201898   1.36116946   0.00000000
C    3.34929872   2.48306894   0.00000000
C    4.06882858   3.72448874   0.01444999
N    3.32134891   4.76781845  -0.03708999
O    4.14946842   5.90006781  -0.01576000
H    0.68975973  -0.97566962  -0.06742997
H    0.65761971   0.49853981  -0.76512969
H    2.81679893  -0.52750981  -0.89489967
H    2.85599899  -0.54337978   0.86840963
H    5.16997766   3.71507883   0.06417997
H    3.50435853   6.63166714  -0.03531998

