%chk=mol_7028.chk
# wB97XD/Def2SVP opt pop=full gfinput

C 6 H 11 N 1

1 2
C    1.818483   3.316186   2.422704
C    4.625313   3.011411   2.331582
C    5.919662   2.542551   0.203070
C    8.714132   2.242406   0.136211
C   10.375428   4.263676   1.424759
N   12.110140   2.213682   2.245864
C    9.973445   0.405554   2.019210
H    1.337964   5.189301   3.154936
H    0.997473   1.895206   3.680676
H    0.946885   3.108618   0.558622
H    5.597917   3.194015   4.133927
H    4.932487   2.362706  -1.589921
H    9.334888   1.877197  -1.814987
H    9.526337   5.283353   3.015152
H   11.233061   5.649827   0.151726
H   13.521425   1.871131   0.976951
H   10.494405  -1.439858   1.244215
H    8.985685   0.099059   3.813845

