%chk=mol_4663.chk
# wB97XD/Def2SVP opt freq pop=full gfinput

C 5 H 11 N 1 O 1

1 2
C    1.14874959  -0.18630992  -0.36798984
C    2.64372921  -0.20571992  -0.09065997
N    3.14187884   1.16149962   0.05430998
C    4.58921814   1.20453954   0.29964989
C    5.51626778   1.46566939  -0.85378969
C    5.31538773   2.52294898   0.19058993
O    6.39075756   2.73038912   1.11979961
H    0.76989973  -1.20924950  -0.46206984
H    0.92611963   0.34328988  -1.30042958
H    0.59941977   0.30213988   0.44420981
H    3.15586877  -0.70992970  -0.91775966
H    2.83310914  -0.77790970   0.82405972
H    2.64284897   1.62482941   0.81509966
H    4.94256830   0.53667980   1.08299959
H    5.08207846   1.64201939  -1.83132935
H    6.45525742   0.92747962  -0.88316971
H    4.73237848   3.39537883  -0.08906997
H    7.03762722   2.00416923   1.10586965

