%chk=mol_3973.chk
# wB97XD/Def2SVP opt freq pop=full gfinput

C 4 H 8 N 2 O 1

1 2
C    1.10176969  -0.35825986   0.23864990
C    2.50887895  -0.07109997  -0.14854994
C    3.00486898  -0.36745986  -1.51796949
N    2.76264906   0.98321962  -1.08632958
C    3.82625866   1.85388923  -0.88903970
N    3.53232861   3.11763883  -1.30525959
O    4.92107821   1.57237947  -0.41810983
H    0.77707976   0.33345985   1.02237964
H    1.02070963  -1.37717950   0.62992978
H    0.41153985  -0.26291990  -0.60641980
H    3.19923878  -0.13546996   0.68448973
H    2.31950927  -0.69631970  -2.28579926
H    4.04628849  -0.62892973  -1.65543938
H    2.55939913   3.37725854  -1.36235940
H    4.20925856   3.83049846  -1.07353961

