%chk=mol_0461.chk
# wB97XD/Def2SVP opt freq pop=full gfinput

C 5 H 11 N 1

1 2
C    1.06111956   0.01221000  -0.04625998
N    2.50884891  -0.00651000   0.10412996
C    2.99991894   1.09264958   0.93421966
C    4.42777824   0.65862978   1.20459950
C    4.32493830  -0.85138971   1.37234950
C    2.99201894  -1.23655951   0.73554975
H    0.73271972  -0.81691968  -0.68101972
H    0.73971969   0.93765962  -0.53534979
H    0.54067981  -0.06450998   0.91624963
H    2.44328904   1.17588949   1.87602925
H    2.96234894   2.05402923   0.41232985
H    5.06736803   0.89197963   0.34442988
H    4.85453796   1.14562964   2.08577919
H    5.17067766  -1.35631955   0.89698970
H    4.32468843  -1.11784959   2.43632889
H    3.12018895  -2.03300929  -0.00468000
H    2.30973911  -1.59896946   1.51386952

