%chk=mol_1284.chk
# wB97XD/Def2SVP opt freq pop=full gfinput

C 6 H 13 N 1

1 2
C    3.02325892  -0.80911970   1.19688952
C    2.58519912   0.01147000  -0.01351000
C    3.07613897   1.48387945  -0.03718999
C    2.55514908   2.15965915  -1.31889951
N    2.51241899   2.22458935   1.09574962
C    4.59212828   1.54258943  -0.05496998
C    5.39902782   2.20187926   0.79038972
H    2.64542913  -1.83289933   1.10531950
H    2.62911892  -0.39684987   2.13021922
H    4.11314821  -0.86568969   1.27351952
H    1.48808944  -0.01138000  -0.06205998
H    2.93687892  -0.50456983  -0.91719967
H    2.92803884   1.65220928  -2.21713924
H    2.87143898   3.20845890  -1.37984955
H    1.45931947   2.14104915  -1.36584949
H    2.81799889   1.79112935   1.96415925
H    1.49748945   2.14642906   1.08348966
H    5.06795835   0.98302960  -0.86028969
H    5.00990820   2.80083895   1.60727930
H    6.47674751   2.16959929   0.66720980

