%chk=mol_6179.chk
# wB97XD/Def2SVP opt pop=full gfinput

C 4 H 9 N 1 O 2

1 2
O    3.504440  -0.682323  -2.436273
C    4.326717   0.021052   0.035735
C    5.902786   2.431492  -0.110719
O    8.271955   1.925291  -1.417899
C    4.424605   4.815135  -0.963004
N    5.646350   6.262722   1.100539
C    6.174983   3.861599   2.434421
H    3.124038  -2.479056  -2.384135
H    5.447325  -1.527371   0.831404
H    2.641006   0.272744   1.208915
H    8.927690   3.584338  -1.849588
H    2.365238   4.694703  -0.770120
H    4.861850   5.511235  -2.860649
H    7.234968   7.205016   0.550515
H    8.045358   3.775200   3.312936
H    4.758746   3.393533   3.872181

