%chk=mol_0944.chk
# wB97XD/Def2SVP opt freq pop=full gfinput

C 4 H 7 N 1 O 1

1 2
C    0.95632964  -0.01703000   0.11740996
C    2.45692897   0.05740998  -0.05930998
C    3.20871878   1.08054960   0.82605970
N    4.13616848  -0.00400000   1.16532958
C    3.29217887  -0.97636962   0.72168976
O    3.25701880  -2.15492916   0.97600961
H    0.54883981  -0.87914968  -0.41910982
H    0.47844982   0.88279963  -0.28261989
H    0.67467976  -0.11039996   1.17159951
H    2.74521899   0.09759997  -1.11789954
H    2.67305923   1.45809948   1.70218933
H    3.68807840   1.90248930   0.28870988
H    4.62112808  -0.17693993   2.03622937

