%chk=mol_2297.chk
# wB97XD/Def2SVP opt freq pop=full gfinput

C 6 H 8 O 1

1 2
C    1.08833957   0.12596996   0.25215992
C    2.37773919  -0.08110997  -0.03890999
C    3.01695895  -1.45053947  -0.12035996
C    4.19554853  -1.25891948  -1.09059954
C    4.55838823   0.18952993  -0.97530967
O    3.81385851   1.10242963  -1.78023934
C    3.36957860   0.93612969  -0.42648983
H    0.66891974   1.12785959   0.24845991
H    0.42121986  -0.69699973   0.48643982
H    2.33442903  -2.23017907  -0.46911985
H    3.39536881  -1.72822928   0.87127966
H    5.03227806  -1.91134930  -0.82467967
H    3.89207840  -1.49473953  -2.11678934
H    5.55552816   0.42687982  -0.64425975
H    3.54871869   1.74092937   0.27583990

