%chk=mol_3958.chk
# wB97XD/Def2SVP opt freq pop=full gfinput

C 5 H 7 N 1 O 1

1 2
C    0.92423964  -0.06328998  -0.06773998
C    2.40424919   0.06093998  -0.02118999
C    3.09966874   1.20522952  -0.03247999
C    4.59359837   1.17822957   0.02724999
O    5.09527826  -0.02868999  -0.56088984
N    4.53043842  -1.21224964  -0.02002999
C    3.24905872  -1.14081955   0.15823995
H    0.61174977  -1.10688961  -0.17482994
H    0.51634979   0.48984984  -0.91984963
H    0.47662982   0.32919988   0.85072970
H    2.60366893   2.16738939  -0.08798997
H    5.00005817   2.01051927  -0.55564976
H    4.95470810   1.27062964   1.05724967
H    2.72453904  -2.04125929   0.51811981

