%chk=mol_4641.chk
# wB97XD/Def2SVP opt freq pop=full gfinput

C 4 H 9 N 1 O 2

1 2
C    0.93919969  -0.14639995   0.13747995
C    2.41494918   0.02516999  -0.20783994
C    2.76427889  -0.74833971  -1.49649954
O    4.16691828  -0.83479971  -1.73470926
N    2.72775888   1.44940948  -0.32879987
C    4.00731850   1.92609930  -0.22629991
O    4.99107790   1.23007953  -0.02142999
H    0.69181973   0.39136985   1.05939960
H    0.69126976  -1.20254958   0.28554988
H    0.29632989   0.24808991  -0.65739977
H    3.02582884  -0.36934987   0.61365980
H    2.30478930  -0.27411991  -2.37058902
H    2.39129925  -1.77607942  -1.43479943
H    4.62859821  -0.22836992  -1.11715961
H    2.01279926   2.08430910  -0.66112971
H    4.06432819   3.01675868  -0.37738985

