%chk=mol_4947.chk
# wB97XD/Def2SVP opt freq pop=full gfinput

C 4 H 10 N 2 O 1

1 2
C    0.93136966   0.94117963   0.84754968
C    2.43273902   0.79914969   0.70104975
O    2.97698879   2.07101917   0.35639986
N    4.37407827   1.95284927   0.29584989
C    4.87586832   3.09999871  -0.01200000
N    6.20331764   3.39762878  -0.15881994
C    7.20788717   2.36278915  -0.22606991
H    0.47167984  -0.01721999   1.10562956
H    0.48515981   1.30850959  -0.08274997
H    0.68770975   1.67082942   1.62721932
H    2.66712904   0.07747997  -0.08902997
H    2.86923885   0.45412984   1.64493942
H    4.23474836   3.98404837  -0.18584992
H    6.41899729   4.24655867  -0.66907972
H    7.12987709   1.68044937   0.62603980
H    8.20415688   2.81423903  -0.20462993
H    7.10970736   1.79012930  -1.15316951

