%chk=mol_0848.chk
# wB97XD/Def2SVP opt pop=full gfinput

C 6 H 10

1 2
C    2.010801  -0.234269   0.782366
C    4.693513  -0.032258  -0.168942
C    5.825119  -2.122597  -1.074668
C    5.949784   2.448896  -0.106108
C    8.408884   2.775687  -1.519132
C    4.980317   4.452950   1.125445
H    0.776677   1.100936  -0.209967
H    1.918828   0.144186   2.816070
H    1.215396  -2.123485   0.480312
H    4.850473  -3.928363  -1.110120
H    7.744306  -2.139529  -1.790912
H    8.187730   2.251477  -3.510034
H    9.902618   1.615489  -0.676371
H    9.073406   4.737732  -1.485892
H    3.227860   4.378288   2.183578
H    5.941979   6.265954   1.129508

