%chk=mol_2436.chk
# wB97XD/Def2SVP opt freq pop=full gfinput

C 6 H 10 O 1

1 2
C    0.88423967   0.13310994  -0.08951996
C    2.35766912  -0.02826999   0.07198998
C    3.16596889  -0.84922969  -0.89410967
O    2.46078897  -1.39880943  -2.01731920
C    3.30614877   0.65445971  -0.88433969
C    4.52830791   1.25681949  -0.34418988
C    5.74551773   1.18985963  -0.89866966
H    0.53831977   0.99624962   0.48783982
H    0.36528987  -0.75499976   0.28345990
H    0.59129977   0.28867990  -1.13285959
H    2.62999892  -0.10105997   1.11923957
H    3.96990848  -1.44639945  -0.47332981
H    3.05441904  -1.49790943  -2.78125906
H    2.86966872   1.20136952  -1.71482933
H    4.42053843   1.82096934   0.58103979
H    5.91506767   0.65233976  -1.82581925
H    6.59659767   1.67582941  -0.43257985

