%chk=mol_3984.chk
# wB97XD/Def2SVP opt pop=full gfinput

C 5 H 7 N 1 O 1

1 2
C    1.947042  -0.056125   0.273406
C    4.455577   0.047168   0.012227
C    6.186756   2.265404  -0.020163
N    8.449779   1.507359  -1.472134
C    8.711297  -1.262545  -1.114466
C    6.082178  -2.174300  -0.488173
O    5.385663  -4.369954  -0.378304
H    0.953726  -1.851988   0.194132
H    0.833199   1.636711   0.576102
H    6.757094   2.748644   1.911307
H    5.314099   3.932633  -0.878288
H    8.072173   1.827875  -3.338277
H    9.397363  -2.150754  -2.848120
H    9.978585  -1.666228   0.467197

