%chk=mol_0570.chk
# wB97XD/Def2SVP opt pop=full gfinput

C 4 H 8 N 2

1 2
N    2.216724   0.288089   0.929689
C    4.563443   0.406801   0.292114
N    6.172337   2.398440   0.621096
C    5.116320   4.897641   0.630772
C    7.468614   5.761510  -0.809389
C    7.915496   2.962165  -1.374417
H    1.514313  -1.462346   0.484507
H    5.494246  -1.246936  -0.578691
H    4.889987   5.669424   2.532233
H    3.357854   5.083099  -0.445201
H    7.121263   6.961600  -2.454263
H    8.922115   6.628725   0.382783
H    7.267962   2.352822  -3.243583
H    9.820831   2.260472  -1.002443

