%chk=mol_6849.chk
# wB97XD/Def2SVP opt pop=full gfinput

C 5 H 8 N 2

1 2
C    2.276478  -0.243170   0.138252
C    5.054507   0.313884   0.095752
N    5.883946   2.480039  -0.761408
C    8.650316   2.455265  -0.289789
C    9.157934  -0.087929   0.850641
C    8.677358  -2.445419  -0.624951
N    6.734870  -1.437893   1.078712
H    1.954033  -2.282959   0.112647
H    1.360319   0.611213  -1.503844
H    1.457395   0.551762   1.859736
H    9.678592   2.708998  -2.065301
H    9.144423   3.977023   1.019829
H   10.273478  -0.102234   2.556025
H    9.482891  -4.199330   0.040969
H    8.204341  -2.339651  -2.610298

