%chk=mol_5650.chk
# wB97XD/Def2SVP opt freq pop=full gfinput

C 5 H 11 N 1 O 1

1 2
N    0.81132972   0.45450982   0.81420970
C    1.81125927   0.21252991  -0.21479993
C    2.99046898   1.13557959   0.00358000
C    3.78856874   0.82201970   1.25609946
O    5.09929800   1.37829947   1.20472944
C    3.67425847   1.69636929  -1.23735964
C    2.83184886   2.59735894  -0.38377985
H   -0.00616000  -0.12469996   0.62921977
H    0.49144983   1.42022943   0.74527973
H    1.35942948   0.37237984  -1.20038950
H    2.13997936  -0.83157969  -0.17417993
H    3.88934851  -0.25895992   1.40108955
H    3.28564882   1.23709953   2.13560915
H    5.58832788   0.86214966   0.54319984
H    3.28928900   1.42586946  -2.21477914
H    4.74170828   1.88193929  -1.24054956
H    3.33903885   3.34303880   0.22039992
H    1.88273931   2.93387890  -0.78398967

