%chk=mol_0978.chk
# wB97XD/Def2SVP opt pop=full gfinput

C 4 H 9 N 1 O 1

1 2
C    5.345903  -1.600881   2.424367
C    4.887436  -0.154674  -0.018803
C    5.852425   2.558481   0.097151
C    8.693496   2.645390   0.134681
N    9.887463   3.699120   1.987973
O   12.487064   3.530802   1.532643
H    4.524496  -3.495219   2.293920
H    4.475590  -0.635685   4.033866
H    7.367513  -1.812247   2.806376
H    2.850860  -0.122227  -0.396446
H    5.782902  -1.169778  -1.587086
H    5.087785   3.550285   1.744822
H    5.240305   3.570467  -1.602110
H    9.697678   1.793823  -1.485476
H   13.198887   4.392309   2.999033

