%chk=mol_4799.chk
# wB97XD/Def2SVP opt freq pop=full gfinput

C 4 H 10 N 2 O 1

1 2
C    2.28997922   0.80298966   2.10122919
C    3.01253867   0.19584993   0.90941966
N    3.57269883   1.22593963   0.04391998
O    2.60553908   1.88244927  -0.72928971
C    4.66841793   2.00956917   0.35682988
C    5.75788784   1.46169949   1.24695957
N    4.81039810   3.21803880  -0.09258997
H    1.85335934   0.01364999   2.72122884
H    1.48237944   1.46857941   1.77908933
H    2.97261906   1.38635945   2.72741914
H    2.30939913  -0.41494983   0.33127987
H    3.79995871  -0.48197982   1.25479960
H    2.90513897   1.69873929  -1.64087939
H    5.40882826   1.44483948   2.28261924
H    6.65202761   2.08886933   1.18697953
H    6.01898766   0.44685984   0.93551970
H    3.95528841   3.41940880  -0.62527978

