%chk=mol_4590.chk
# wB97XD/Def2SVP opt freq pop=full gfinput

C 4 H 10 N 2 O 1

1 2
C    0.99683964   0.00782000   0.03835998
C    2.51882887   0.01374999  -0.05693998
C    2.99108887  -0.81826973  -1.24771953
O    4.41200876  -0.92132962  -1.25222957
C    2.99081874   1.45272946  -0.12357996
N    3.72868872   1.88708925  -1.09811950
N    4.05546856   3.19059896  -0.97147965
H    0.65583974   0.58910978   0.90199965
H    0.61557978  -1.01258969   0.14747994
H    0.54203981   0.45030984  -0.85488969
H    2.93945885  -0.39833984   0.86874968
H    2.67019892  -0.39231986  -2.20494938
H    2.59251904  -1.83608925  -1.18393958
H    4.73583841  -0.01403999  -1.42887950
H    2.68688893   2.10815907   0.71528971
H    4.49490833   3.52014875  -1.83563924
H    4.76774836   3.32558870  -0.24840991

