%chk=mol_1277.chk
# wB97XD/Def2SVP opt freq pop=full gfinput

C 7 H 12

1 2
C   -1.72364938   0.84291971   0.55663979
C   -1.15399957  -0.25702992  -0.29810989
C   -0.35157987  -1.38169944   0.28467992
C    1.06851959  -1.33764958  -0.27985990
C    1.77047944   0.02067999  -0.09528997
C    0.86309963   1.16098952   0.37699988
C   -0.48759982   1.09418964  -0.26969987
H   -2.64943886   1.30560946   0.23374993
H   -1.62771940   0.76748967   1.63472939
H   -1.67647934  -0.53867978  -1.20389962
H   -0.31833988  -1.31556952   1.37917948
H   -0.82231969  -2.33966923   0.03718999
H    1.67522943  -2.13242936   0.16889994
H    1.02472961  -1.55601943  -1.35500956
H    2.59746909  -0.08926997   0.61685979
H    2.23376894   0.29964989  -1.05024958
H    0.76193970   1.10768962   1.46844947
H    1.33562946   2.12542915   0.15900993
H   -0.56410980   1.70809937  -1.15913951

