%chk=mol_2609.chk
# wB97XD/Def2SVP opt pop=full gfinput

C 7 H 14

1 2
C    2.043890   0.662614  -3.185889
C    4.761392   1.177356  -2.620181
C    5.563033   2.550507  -0.644075
C    8.299809   3.062320  -0.075948
C    8.946020   5.900821  -0.031332
C   11.677865   6.274439   0.842912
C    8.566752   7.147795  -2.614512
H    1.568907   1.382259  -5.065316
H    0.776791   1.553544  -1.815422
H    1.693157  -1.374719  -3.161228
H    6.128798   0.369064  -3.925642
H    4.192584   3.349275   0.664995
H    9.523785   2.089092  -1.438743
H    8.717175   2.236926   1.780216
H    7.705774   6.852846   1.333315
H   13.011747   5.366180  -0.452741
H   11.963195   5.467979   2.726856
H   12.149673   8.286714   0.941462
H    9.721677   6.230446  -4.065821
H    9.098200   9.146898  -2.545404
H    6.589248   7.056842  -3.212780

