%chk=mol_2944.chk
# wB97XD/Def2SVP opt pop=full gfinput

C 6 H 10 O 1

1 2
C    4.493429  -3.295399   1.087103
C    6.355867  -1.724640  -0.438133
C    5.680158   1.025743  -0.365870
C    7.194641   2.816202   0.575176
O    6.476450   5.305708   0.673801
C    8.150937   7.054102   1.595118
C    7.433049   9.400613   2.183862
H    5.040617  -5.289381   1.048496
H    2.579608  -3.143559   0.314658
H    4.440611  -2.684186   3.063586
H    6.354677  -2.367657  -2.406906
H    8.267665  -2.034498   0.299843
H    3.844912   1.567849  -1.118378
H    9.038031   2.409514   1.357466
H   10.077985   6.412313   1.797054
H    5.484042   9.992002   1.962518
H    8.781841  10.760668   2.913693

