%chk=mol_0998.chk
# wB97XD/Def2SVP opt freq pop=full gfinput

C 4 H 7 N 1 O 1

1 2
C    0.99412966  -0.01671999   0.05661998
C    2.51999903   0.00000000   0.00000000
C    3.01638889  -0.73397970  -1.24969959
O    4.41360855  -1.00863969  -1.16683960
C    3.00201893   1.36116946   0.00000000
N    3.38622880   2.44615912   0.00000000
H    0.62759978   0.50275981   0.95002967
H    0.61603975  -1.04459965   0.09003996
H    0.55279982   0.47756982  -0.81743968
H    2.90979886  -0.51256979   0.88817966
H    2.82480884  -0.17111994  -2.17129922
H    2.51429915  -1.70336938  -1.34289956
H    4.89733791  -0.17926992  -1.33468950

