%chk=mol_6798.chk
# wB97XD/Def2SVP opt freq pop=full gfinput

C 5 H 10 N 2

1 2
C    0.99103963   0.03523999  -0.08276997
C    2.50717902  -0.00840000   0.05675998
C    2.98730898  -1.32085955   0.71694976
N    3.55431867  -0.84044969   1.95815921
C    3.51763868  -1.65935934   3.14347887
C    3.44763851   0.51221979   1.97948933
N    2.92364883   1.11421955   0.95314968
H    0.63582975  -0.77072966  -0.73233968
H    0.66921973   0.99045962  -0.51060981
H    0.50087982  -0.06911997   0.89207965
H    2.97549891   0.12075996  -0.92596960
H    3.76956868  -1.79260933   0.11100996
H    2.17677927  -2.04110932   0.86815965
H    3.54092884  -2.72380900   2.88842893
H    2.60741901  -1.46569943   3.72079849
H    4.38361835  -1.44829941   3.77846861
H    3.81434870   1.03010964   2.87945890

