%chk=mol_5430.chk
# wB97XD/Def2SVP opt pop=full gfinput

C 4 H 6 N 2 O 1

1 2
C    5.523556  -1.725641   1.495057
O    5.351761  -0.336447  -0.802340
N    6.346985   2.070157  -0.401775
C    4.995567   4.143735   0.296290
C    6.748477   6.063715   0.373901
N    9.106534   5.201528  -0.302299
C    8.786470   2.787724  -0.809200
H    4.735937  -3.608659   1.165507
H    4.422507  -0.817307   2.993893
H    7.495882  -1.942846   2.082270
H    2.990643   4.073872   0.661083
H    6.440792   8.026347   0.864739
H   10.220074   1.484153  -1.454957

