%chk=mol_4062.chk
# wB97XD/Def2SVP opt freq pop=full gfinput

C 5 H 6 N 2

1 2
C   -1.48639941   0.77162969   0.54343981
C   -1.11660957  -0.43806985  -0.27506989
C   -0.19288993  -1.44713950   0.26135990
N    1.06845963  -1.22110963   0.43786985
N    1.64267945   0.02729999   0.13912995
C    0.93549967   1.00526965  -0.32549989
C   -0.50493979   0.89151967  -0.59336978
H   -2.47509909   1.19398952   0.40753984
H   -1.11010957   0.84154969   1.55888939
H   -1.85990930  -0.81901973  -0.96582961
H   -0.60609972  -2.43626928   0.51508981
H    1.42135942   1.97062933  -0.53956980
H   -0.84381974   1.38933945  -1.49444938

