%chk=mol_2450.chk
# wB97XD/Def2SVP opt freq pop=full gfinput

C 6 H 8 O 1

1 2
C    1.15223956   0.11429996   0.21495992
C    2.45956922  -0.06379998  -0.01497999
C    3.12415886  -1.41183949  -0.15987994
O    4.42513847  -1.16311955  -0.73725969
C    4.71236801   0.25621989  -0.66396970
C    4.01405859   1.16296959  -1.63346946
C    3.45540857   0.98133963  -0.24960990
H    0.72660977   1.11098957   0.27065992
H    0.47999981  -0.72770971   0.34299988
H    2.57021904  -2.07816935  -0.82681972
H    3.27180886  -1.88640928   0.81507969
H    5.65971804   0.57304978  -0.24545990
H    4.48468876   2.11118913  -1.86550927
H    3.49492884   0.71506971  -2.47265911
H    3.54738879   1.77474940   0.48020983

