%chk=mol_2265.chk
# wB97XD/Def2SVP opt freq pop=full gfinput

C 6 H 12 O 1

1 2
C    0.83338964  -0.56859982  -0.19078992
C    2.31024909  -0.63832974  -0.38293985
C    2.92051888  -0.34649986  -1.72894931
C    3.09898877   0.63223976  -0.59307981
C    4.45650816   0.81121969   0.02928999
C    4.36792850   1.34984946   1.45557940
O    3.94450855   0.33375987   2.35824919
H    0.60313976  -0.26815990   0.83608967
H    0.38341984  -1.54982948  -0.36864984
H    0.36341989   0.15042995  -0.86962968
H    2.75491881  -1.43608952   0.20223993
H    2.26712918  -0.06221998  -2.54619908
H    3.76860857  -0.94809961  -2.03792930
H    2.56048918   1.57179940  -0.66939974
H    5.01625824   1.52498949  -0.58556974
H    5.00698805  -0.13661996   0.02483999
H    3.67536855   2.19452929   1.53177941
H    5.35539818   1.68536937   1.78694928
H    3.06267881   0.04475998   2.06711936

