%chk=mol_0077.chk
# wB97XD/Def2SVP opt pop=full gfinput

C 4 H 8 O 1

1 2
O    1.770825   0.011452   0.047734
C    4.485643   0.036793   0.015987
C    5.764307   1.998820   1.767177
C    7.788260  -0.011074   2.339916
C    5.813497  -2.022404   1.610103
H    1.300604  -1.486062  -0.910413
H    5.192514   0.127802  -1.932094
H    4.621325   2.537562   3.408518
H    6.456192   3.709589   0.838604
H    9.415806   0.058128   1.060968
H    8.463271  -0.078991   4.289886
H    6.548071  -3.637647   0.552707
H    4.686993  -2.715121   3.204144

