%chk=mol_5248.chk
# wB97XD/Def2SVP opt freq pop=full gfinput

C 6 H 11 N 1

1 2
C    0.81862968   0.05245998  -0.02842999
C    2.29010916  -0.08013996   0.14559995
C    3.14818883  -0.99873960  -0.68506974
C    2.71902919  -1.56366944  -2.00151920
C    2.96998882  -0.42225984  -2.97007895
C    2.84878898   0.84076965  -2.12341928
N    3.28587890   0.48023981  -0.76468968
H    0.49577981   1.05788958   0.26262990
H    0.30659989  -0.66214979   0.62511981
H    0.46808982  -0.13333994  -1.04697967
H    2.55102897   0.01153000   1.19616950
H    3.97805858  -1.51828945  -0.22432992
H    3.30318880  -2.44793892  -2.27433920
H    1.66368937  -1.85220933  -1.98622930
H    3.99031854  -0.49926981  -3.36772895
H    2.27724934  -0.43290982  -3.81695843
H    3.50314879   1.62189949  -2.52441907
H    1.83227932   1.24585950  -2.14523911

