%chk=mol_5462.chk
# wB97XD/Def2SVP opt freq pop=full gfinput

C 4 H 10 N 2 O 1

1 2
C    1.47008955  -0.07567997   0.01686999
O    2.12505913   0.92918962   0.79044968
N    2.71564913   1.82217932  -0.11833996
C    2.01222920   3.09384871  -0.18257993
C    4.09227848   1.80749929  -0.04424999
N    4.88768816   2.75525904  -0.40748984
C    6.29514790   2.43354917  -0.19692993
H    1.04903960  -0.81376970   0.70558977
H    2.18050933  -0.58301979  -0.64407974
H    0.65267974   0.36110985  -0.56590980
H    0.93659967   2.93013906  -0.30100986
H    2.35311913   3.68134856  -1.04087961
H    2.17518902   3.67383862   0.73152971
H    4.47460842   0.85281968   0.36386985
H    6.88989735   3.34739876  -0.30166987
H    6.64679766   1.71627939  -0.94480962
H    6.48136759   2.03606939   0.80770969

