%chk=mol_2354.chk
# wB97XD/Def2SVP opt pop=full gfinput

C 7 H 6

1 2
C    5.270900  -1.344861   5.231008
C    5.950540  -0.773900   3.140725
C    6.779393  -0.091387   0.581488
C    7.841229   2.535068   0.581828
C   10.244017   3.092461   0.000000
C   11.130921   5.597010   0.000000
C   11.881672   7.717093   0.000000
H    4.673406  -1.845374   7.088400
H    5.176640  -0.166579  -0.727374
H    8.175787  -1.464065  -0.093806
H    6.532878   4.047226   1.065862
H   11.573704   1.607722  -0.490554
H   12.550824   9.615267   0.003307

