%chk=mol_2075.chk
# wB97XD/Def2SVP opt freq pop=full gfinput

C 5 H 12 N 2

1 2
N    0.96030962   2.48145914  -1.34096944
C    2.29147935   1.87733924  -1.30813956
C    3.06687880   2.31319904  -0.05938998
C    4.43139839   1.68410933  -0.00871000
C    5.57935810   2.38284922  -0.02334999
C    6.94138718   1.77411926   0.04511998
N    7.70598745   2.17239904  -1.12591958
H    0.49216983   2.21298909  -2.20582914
H    1.04953957   3.49682856  -1.37114954
H    2.83850884   2.16510916  -2.21354914
H    2.18226933   0.78687972  -1.32233942
H    2.51646924   2.01729918   0.84235966
H    3.14612865   3.40760875  -0.03712999
H    4.46095848   0.59795982   0.05738998
H    5.54828787   3.46934867  -0.07605997
H    6.89470768   0.68096972   0.10155997
H    7.44805717   2.13117933   0.94810969
H    7.26351738   1.77653933  -1.95408928
H    8.63188744   1.75223935  -1.07425964

