%chk=mol_3671.chk
# wB97XD/Def2SVP opt freq pop=full gfinput

C 5 H 4 O 2

1 2
O    0.82522970   0.37265986   0.25068992
C    1.99474931   0.26434991  -0.09417997
C    3.03308892   1.14226961   0.46539980
O    4.08804846   1.46743941  -0.45147982
C    3.20217896   2.53519893  -0.07707997
C    3.83905864   3.53352857   0.72602969
C    4.37125874   4.37245798   1.39937949
H    2.32546902  -0.49536982  -0.82172966
H    3.29572892   0.95792967   1.49920940
H    2.49469900   2.88252878  -0.82159966
H    4.84726858   5.11671829   1.99557924

