%chk=mol_3868.chk
# wB97XD/Def2SVP opt freq pop=full gfinput

C 4 H 5 N 1 O 2

1 2
C    1.85106933  -0.40305987  -0.01162000
O    1.01892960  -1.57676935   0.18340993
C   -0.05806998  -0.95262963  -0.55622983
C   -1.20745957  -0.36525989   0.26944989
N   -1.13458955   0.91279966   0.46607980
O    0.06230998   1.41489947  -0.15663995
C    0.75248975   0.30813986  -0.79888976
H    2.75169897  -0.64397979  -0.58473980
H    2.12963915   0.05586998   0.94150960
H   -0.35496986  -1.52342939  -1.43775940
H   -2.02638912  -1.00105965   0.63520974
H    0.98756963   0.52469981  -1.84377933

