%chk=mol_1458.chk
# wB97XD/Def2SVP opt pop=full gfinput

C 5 H 12 N 2

1 2
C    5.070173  -1.888120  -1.008755
C    4.232325   0.660176   0.026664
N    6.347382   2.446704  -0.108130
C    6.046330   4.411339  -2.027185
C    5.628890   4.986212   0.737352
C    7.506559   6.505552   2.207786
N    6.705674   9.143591   2.208787
H    3.521164  -3.251652  -0.875208
H    6.670072  -2.641440   0.067633
H    5.630156  -1.746390  -2.994082
H    3.672003   0.415664   2.006814
H    2.550922   1.294935  -1.007904
H    4.420126   4.349186  -3.266070
H    7.776355   5.047175  -2.914506
H    3.710950   5.253571   1.412287
H    9.411158   6.356226   1.413553
H    7.575326   5.813138   4.156755
H    6.830774   9.837555   0.416061
H    7.957032  10.165272   3.260930

