%chk=mol_4605.chk
# wB97XD/Def2SVP opt freq pop=full gfinput

C 5 H 10 N 2

1 2
C    0.77528971   0.88354963  -0.65752977
N   -0.39564988   0.46276984   0.09800997
C    0.72904974  -0.46824983   0.00614000
C    1.54687941  -0.81344968   1.22076952
C    1.23980963  -0.22275992   2.61684895
C    1.51096940  -1.64542937   3.12551880
N    1.15668952  -2.14000940   1.77670932
H    0.66615975   0.93911970  -1.73294938
H    1.37516952   1.66299939  -0.20490992
H   -1.15386963   0.15377994  -0.51213980
H    0.60930979  -1.33248949  -0.63792974
H    2.61923909  -0.76841974   0.97805965
H    0.20718992   0.10908996   2.77432895
H    1.92414927   0.55142981   2.97288895
H    2.55500889  -1.83194935   3.40344858
H    0.85842967  -1.99520922   3.92955852
H    1.72126937  -2.92116880   1.45085943

