%chk=mol_2550.chk
# wB97XD/Def2SVP opt freq pop=full gfinput

C 5 H 8 O 2

1 2
C    1.04761958   0.01591999   0.10497996
C    2.55125904  -0.00047000  -0.04367999
O    3.13375878   1.04873967   0.75824970
C    4.43882847   0.59684980   1.14021957
C    4.28851795  -0.86556965   1.49230945
C    3.19784880  -1.23371959   0.54273981
O    2.86891890  -2.38759899   0.29621992
H    0.58397979  -0.78598970  -0.47741982
H    0.64020979   0.97560960  -0.22870992
H    0.75300974  -0.10923996   1.15245962
H    2.87228894   0.12827995  -1.08223963
H    5.11926794   0.74240971   0.29225987
H    4.80228853   1.19168949   1.98307920
H    5.20458794  -1.43227947   1.31976950
H    3.92360854  -0.99857962   2.51388907

