%chk=mol_6455.chk
# wB97XD/Def2SVP opt freq pop=full gfinput

C 5 H 6 O 1 S 1

1 2
C    0.93577963   0.01021000  -0.00913000
C    2.42661905   0.02070999  -0.00165000
C    3.19843888   1.16982961   0.00390000
S    4.88004827   0.84846967   0.01197000
C    4.60793829  -0.83872968   0.00796000
C    3.26807857  -1.13382959   0.00058000
O    2.85647893  -2.41486931  -0.00381000
H    0.52760983   1.02579963  -0.00086000
H    0.55471981  -0.51477981   0.87233973
H    0.56380981  -0.49702981  -0.90473968
H    2.85655904   2.19584918   0.00368000
H    5.43768787  -1.53016949   0.01109000
H    1.88664925  -2.46130896  -0.00940000

