%chk=mol_3574.chk
# wB97XD/Def2SVP opt freq pop=full gfinput

C 6 H 10 O 1

1 2
O    1.01965964   0.04473998  -0.02459999
C    2.43635893  -0.00569000   0.00311000
C    2.98447871   1.12481964   0.86551970
C    4.38922834   0.66205978   1.21889949
C    4.21440840  -0.82352972   1.37182939
C    5.02029800  -1.61997950   2.08454919
C    2.95870900  -1.27772951   0.67522973
H    0.70926976  -0.73549968  -0.51495981
H    2.81430888   0.07774998  -1.02357960
H    2.37377906   1.25779951   1.76823938
H    2.98313880   2.08257914   0.33484986
H    5.07749796   0.87114966   0.39274985
H    4.75755787   1.14706957   2.12693930
H    4.82028818  -2.68226886   2.18305922
H    5.89586782  -1.22696960   2.59166884
H    3.16457868  -2.04926920  -0.07306997
H    2.23301911  -1.67274940   1.39459944

