%chk=mol_4740.chk
# wB97XD/Def2SVP opt freq pop=full gfinput

C 5 H 9 N 1 O 1

1 2
C    0.96740961  -0.06705997   0.17191993
C    2.42439890   0.15922993  -0.23471992
N    2.65699887  -0.33587986  -1.57731938
C    2.89954877  -1.65950942  -1.82760930
O    3.01026869  -2.54031897  -0.98688966
C    2.89149904   1.59334946  -0.23200990
C    2.16805911   2.69498897   0.01327999
H    0.77646971   0.30617988   1.18371952
H    0.72196972  -1.13474953   0.16003993
H    0.27460989   0.42961985  -0.51730978
H    3.06099868  -0.40522984   0.45793983
H    2.47248912   0.28041989  -2.35754919
H    2.99049902  -1.86031926  -2.90835905
H    3.95380855   1.72485924  -0.43780985
H    1.10883963   2.66057897   0.24418990
H    2.63616896   3.67517853  -0.00353000

