%chk=mol_2734.chk
# wB97XD/Def2SVP opt pop=full gfinput

C 6 H 8 O 1

1 2
C    2.143762   0.293097   0.065082
C    4.965785  -0.253053  -0.089044
C    5.600865  -1.584705  -2.450276
C    6.115551  -2.685546  -4.366533
C    6.471462   2.147579  -0.206604
C    7.158982   3.547658   2.180801
O    8.958076   2.005831   0.867025
H    1.691607   1.331841   1.797508
H    1.047211  -1.463120   0.063570
H    1.497835   1.439839  -1.535346
H    5.529924  -1.401629   1.540542
H    6.586357  -3.662629  -6.064339
H    6.206616   3.245378  -1.914482
H    6.461937   2.860460   3.977231
H    7.407405   5.576128   2.078472

