%chk=mol_1508.chk
# wB97XD/Def2SVP opt freq pop=full gfinput

C 6 H 15 N 1

1 2
C    0.95846963  -0.11456996  -0.01811999
C    2.48643899   0.00785000  -0.03667999
N    2.99618888  -0.77072966  -1.17366958
C    3.02505898   1.47968948  -0.04364999
C    2.57924914   2.27179909  -1.28835952
C    2.53242898   2.23374915   1.20953953
C    4.57007837   1.47053945  -0.00279000
H    0.52869982   0.36491987   0.86587965
H    0.65577972  -1.16781962   0.01809999
H    0.49875981   0.32733989  -0.90758967
H    2.86203885  -0.48074982   0.87218970
H    2.59849906  -0.41564983  -2.04229927
H    2.67722893  -1.73615932  -1.09674966
H    2.93640900   1.81042933  -2.21481919
H    2.97669888   3.29354882  -1.26351953
H    1.48913956   2.35265923  -1.34828949
H    2.78075886   1.68414938   2.12441921
H    1.44900954   2.39065909   1.19109952
H    2.99660873   3.22438884   1.28280950
H    4.93801832   0.91141963   0.86489964
H    4.97016859   2.48889923   0.06629997
H    4.99804783   1.01642966  -0.90296972

