%chk=mol_6867.chk
# wB97XD/Def2SVP opt pop=full gfinput

C 5 H 10 N 2

1 2
C    1.932094  -0.090102   0.215145
C    4.785675  -0.029215   0.120035
N    5.834586   2.157954  -0.083583
C    8.594928   2.298928  -0.278924
C    9.967077  -0.064288   0.616750
C    8.681212  -2.396985  -0.435317
N    6.046198  -2.286002   0.244890
H    1.226735  -2.031456   0.185855
H    1.173728   0.919900  -1.419014
H    1.283275   0.841231   1.942431
H    9.089507   2.700910  -2.253574
H    9.250002   3.913018   0.838131
H   11.951894  -0.004838   0.021222
H    9.948275  -0.129824   2.684658
H    9.539508  -4.107471   0.348239
H    8.865140  -2.480454  -2.495780
H    5.035591  -3.894820   0.006690

