%chk=mol_4215.chk
# wB97XD/Def2SVP opt pop=full gfinput

C 4 H 7 N 1 O 2

1 2
C    2.029490   0.256889  -0.040875
C    4.880539  -0.010866   0.266867
O    6.055816   2.298096  -0.398109
C    6.936467   2.193859  -2.935897
O    8.633081   0.128860  -3.307701
N    7.494068  -2.268276  -2.960766
C    5.776647  -2.303595  -1.210672
H    1.332862   1.890841   1.021737
H    1.038386  -1.436211   0.618092
H    1.515579   0.562288  -2.023859
H    5.287756  -0.371199   2.264005
H    7.971488   3.940929  -3.322006
H    5.356089   2.082384  -4.272482
H    4.873263  -4.125442  -0.755626

