%chk=mol_5252.chk
# wB97XD/Def2SVP opt pop=full gfinput

C 5 H 9 N 1 O 1

1 2
C    2.828183   3.977231   2.231691
N    5.066639   4.138179   1.283332
O    6.131991   1.712867   1.224618
C    8.649995   1.913518   0.193338
C   10.712177   2.989717   1.973139
C   12.535366   1.014707   0.858767
C   10.194279  -0.572644   0.176236
H    1.662524   5.687244   2.437463
H    1.990014   2.176662   2.866355
H    8.629075   2.820775  -1.674978
H   10.312311   2.725420   3.988154
H   11.238523   4.959927   1.644137
H   13.590721   1.692571  -0.789395
H   13.850804   0.149099   2.194501
H   10.291562  -1.551900  -1.640150
H    9.635638  -1.925272   1.641964

