%chk=mol_5256.chk
# wB97XD/Def2SVP opt freq pop=full gfinput

C 4 H 8 N 2 O 1

1 2
C    1.15251958   0.61909980  -0.79148966
N    2.30781913   0.36695987  -0.27349991
O    3.06681871   1.54840946  -0.27221990
C    4.38398838   1.24453950   0.20018992
C    5.21780825   2.48564911   0.11174996
C    5.48179770   3.32587862   1.33388948
N    6.54321766   2.51834893   0.73872972
H    0.40568984  -0.18398993  -0.88174963
H    0.86518967   1.61678934  -1.16247952
H    4.82112837   0.46512982  -0.43447983
H    4.31982851   0.87162966   1.22938955
H    5.13662815   2.97023892  -0.85371965
H    5.11609793   2.98573899   2.29487920
H    5.56477785   4.39907789   1.22012949
H    7.18336725   3.10025907   0.19426994

