%chk=mol_1057.chk
# wB97XD/Def2SVP opt pop=full gfinput

C 4 H 9 N 1 O 1

1 2
C    3.901831  -0.956088  -2.588339
O    4.334238   0.071640  -0.148211
C    5.817635   2.364973  -0.079217
C    4.512930   4.847374  -0.891157
N    5.780615   6.161396   1.231912
C    6.043646   3.683454   2.515188
H    2.794621  -2.688135  -2.386686
H    5.701266  -1.412722  -3.497278
H    2.842242   0.384238  -3.751239
H    7.669019   2.083971  -0.976592
H    2.447063   4.828345  -0.735500
H    5.028448   5.550655  -2.765501
H    7.474358   6.943326   0.743513
H    7.842647   3.413620   3.497033
H    4.500156   3.267204   3.832724

