%chk=mol_5365.chk
# wB97XD/Def2SVP opt freq pop=full gfinput

C 4 H 7 N 1 O 2

1 2
C    3.20684862  -0.53783977   1.10945952
O    2.78640890   0.21067992  -0.02668999
C    3.30154872   1.47059941  -0.16059993
C    4.16776848   2.10631919   0.64421976
C    4.59376812   3.48511863   0.32831988
N    5.44216824   4.00848866   1.25456953
O    4.23242855   4.11406851  -0.65322977
H    2.68578887  -1.50068951   1.09871960
H    2.94063902  -0.02196999   2.03876925
H    4.28320837  -0.73297971   1.06877959
H    2.89323878   1.92923927  -1.05814958
H    4.57254839   1.65005934   1.53132939
H    5.74932814   3.51712871   2.08317924
H    5.76710749   4.95555830   1.10731947

