%chk=mol_4724.chk
# wB97XD/Def2SVP opt freq pop=full gfinput

C 4 H 8 N 2 O 1

1 2
C    1.96434927  -0.82453972   0.46952981
C    3.20087886  -0.25027990  -0.19893992
N    3.32404876   1.15819955   0.18536992
C    4.35806847   1.72366929  -0.31010988
N    4.57871819   3.03460884  -0.02526999
C    5.63190794   3.77688861  -0.48317984
O    5.79595757   4.95948839  -0.21634991
H    1.83818936  -1.87785935   0.20136993
H    1.06528962  -0.28056991   0.16170995
H    2.04089928  -0.75332975   1.55949938
H    3.10079885  -0.34412989  -1.28684962
H    4.08245850  -0.81775969   0.12244995
H    5.10498810   1.23958957  -0.96160966
H    3.90486836   3.49836874   0.56674975
H    6.32907772   3.21148896  -1.12303948

