%chk=mol_4898.chk
# wB97XD/Def2SVP opt pop=full gfinput

C 4 H 11 N 1 O 2

1 2
C    1.962140  -0.444879   0.337656
C    4.747578   0.113497  -0.222874
O    6.290237  -0.848638   1.819598
C    5.643024  -1.174257  -2.698151
N    5.349588  -3.936337  -2.614398
C    5.185749   2.990473  -0.354399
O    7.813923   3.540459  -0.604637
H    0.742851   0.169244  -1.215056
H    1.352250   0.523322   2.063713
H    1.648389  -2.462294   0.673990
H    5.407961  -0.492973   3.394118
H    7.653145  -0.781666  -3.005477
H    4.592224  -0.436867  -4.320878
H    6.199209  -4.548779  -0.988648
H    6.351161  -4.715055  -4.063100
H    4.551084   3.904514   1.390253
H    4.180225   3.844534  -1.946456
H    8.680552   2.350460   0.512909

