%chk=mol_3329.chk
# wB97XD/Def2SVP opt pop=full gfinput

C 5 H 6 O 2

1 2
C    5.740175  -2.200303   1.002708
O    4.375415   0.065838   0.543636
C    5.849421   2.136883   0.298255
C    4.837680   4.486701  -0.151858
O    6.705032   6.244203  -0.320705
C    8.923249   4.998118   0.025549
C    8.500838   2.460971   0.414644
H    4.373885  -3.743888   1.168493
H    6.792526  -2.092361   2.783245
H    7.007312  -2.643160  -0.574571
H    2.933006   5.185238  -0.388225
H   10.603386   6.159033  -0.057448
H    9.943361   1.055393   0.737428

