%chk=mol_2310.chk
# wB97XD/Def2SVP opt pop=full gfinput

C 7 H 6

1 2
C    3.022390  -1.051425   1.923307
C    4.528124  -0.157962   0.093900
C    5.891127   2.325743   0.203977
C    8.629151   1.904315   0.082241
C   10.871311   1.573669  -0.015741
C   13.732167   1.151599  -0.140596
C   15.974611   0.818988  -0.238748
H    2.087373  -2.866469   1.717648
H    2.697622  -0.011282   3.661609
H    4.786355  -1.278022  -1.612201
H    5.414878   3.361426   1.932528
H    5.282276   3.495483  -1.391878
H   17.961243   0.523757  -0.324693

