%chk=mol_6372.chk
# wB97XD/Def2SVP opt freq pop=full gfinput

C 4 H 4 N 2 O 1

1 2
O    0.79810971   0.45110983   0.32261986
N    2.15293932   0.10616996   0.38485986
C    2.86331892   1.16836953   0.19314992
C    4.33623838   1.11700952   0.20240992
C    5.03792810   2.23854923   0.00000000
C    6.44392776   2.23854923   0.00000000
N    7.59493732   2.23854923   0.00000000
H    0.35609987  -0.40529984   0.47717983
H    2.39794922   2.15461922   0.01515999
H    4.79403830   0.14889996   0.37711987
H    4.54915810   3.19107890  -0.17189993

