%chk=mol_0644.chk
# wB97XD/Def2SVP opt pop=full gfinput

C 5 H 6 O 1

1 2
C    1.933851  -0.107922  -0.140501
C    4.702092   0.314583   0.080899
O    6.167027  -0.836960  -1.878879
C    6.115588   1.878728  -1.834678
C    8.491712   2.978511  -1.158421
C   10.481215   3.907746  -0.597739
H    0.912341   1.241323   1.047815
H    1.451272  -2.016943   0.491404
H    1.265455   0.114725  -2.085936
H    5.392201   0.181546   2.000105
H    5.048385   2.813160  -3.311027
H   12.255611   4.723144  -0.103217

