%chk=mol_5132.chk
# wB97XD/Def2SVP opt pop=full gfinput

C 5 H 9 N 1 O 1

1 2
C    1.999859   0.651313   2.122276
N    4.724353   1.083134   2.162432
C    5.594912   2.618556   0.000000
C    4.608929   5.374778   0.188028
O    4.860432   6.342847   2.706447
C    8.323677   2.618556   0.000000
C   10.572753   2.618556   0.000000
H    1.496531  -0.652976   3.646151
H    1.383979  -0.193281   0.336277
H    0.944844   2.396834   2.451580
H    5.613810  -0.627805   2.064148
H    4.936512   1.789419  -1.782333
H    2.599847   5.461895  -0.301525
H    5.627604   6.644806  -1.089427
H    4.952500   4.836773   3.781248
H   12.586389   2.631746   0.019143

