%chk=mol_6353.chk
# wB97XD/Def2SVP opt freq pop=full gfinput

C 4 H 7 N 1 O 2

1 2
O    0.71370977   1.67828941  -0.44583985
N    2.03171921   1.53039944  -0.88981962
C    2.80168891   1.37998950   0.13775995
C    4.31649828   1.20348954  -0.03555999
C    5.07967806   2.26919913  -0.82798970
O    6.06004763   2.40926909   0.22926992
C    5.22416782   1.63432944   1.11980951
H    0.22115992   1.79361928  -1.28056955
H    2.40591908   1.38163948   1.16817951
H    4.55286837   0.18779992  -0.38045987
H    4.55320787   3.21260881  -1.00356960
H    5.53334808   1.92043924  -1.75992930
H    5.78155756   0.82582968   1.60107946
H    4.76577806   2.27112913   1.88305926

