%chk=mol_6810.chk
# wB97XD/Def2SVP opt freq pop=full gfinput

C 5 H 10 N 2

1 2
C    1.00803959   0.05732998  -0.22121993
C    2.50388908  -0.05334998   0.02669999
C    2.91080880  -1.30326951   0.79733974
N    2.87456894  -0.80039966   2.17231917
C    3.54772854  -1.67255938   3.12237883
N    3.14674878   0.52972978   2.22593927
C    2.92764902   0.97446966   1.03178954
H    0.66456974  -0.74599969  -0.88143963
H    0.76594973   1.01574957  -0.69391972
H    0.43248984   0.00105000   0.70992970
H    3.07111883   0.06392998  -0.90079963
H    3.92845869  -1.59746933   0.51378983
H    2.23396921  -2.14881921   0.63780975
H    3.16773891  -2.69739890   3.04969883
H    3.36152887  -1.33110952   4.14675856
H    4.63072824  -1.68657935   2.95827889
H    3.02427888   2.03207922   0.74939972

