%chk=mol_0523.chk
# wB97XD/Def2SVP opt freq pop=full gfinput

C 4 H 8 N 2

1 2
N    1.16648960  -0.06135998   0.41827986
C    2.36615920  -0.01589999  -0.03035999
C    3.19513869   1.24184954   0.00301000
C    4.40909815   0.82007968  -0.82672971
C    4.48118830  -0.69824976  -0.65756977
N    3.08324885  -1.06160963  -0.53159982
H    0.79933971  -1.00719965   0.29027990
H    3.47015858   1.46053934   1.03944957
H    2.66144919   2.09081912  -0.43023986
H    4.23215866   1.06569958  -1.88152921
H    5.32904816   1.32256949  -0.51488978
H    4.95189810  -1.18707955  -1.51486945
H    5.02315807  -0.96598959   0.25581989
H    2.85910892  -1.99448919  -0.20929992

