%chk=mol_2042.chk
# wB97XD/Def2SVP opt freq pop=full gfinput

C 7 H 8

1 2
C    0.96751964   0.43787983  -1.05740964
C    2.13739920   0.28142989  -0.84313965
C    3.52183867   0.09060996  -0.58983976
C    4.35347843   1.12636948  -0.40448985
C    5.78948784   1.02471960  -0.12819995
C    6.71236753   0.53704983  -1.21420956
C    6.72684765   1.98354936  -0.81469965
H   -0.07134998   0.57773978  -1.24774957
H    3.89711857  -0.92737967  -0.55087978
H    3.94439864   2.13535905  -0.44191983
H    6.03239775   0.74876976   0.89399970
H    6.29878759   0.28559992  -2.18458915
H    7.55495691  -0.07941997  -0.92211968
H    7.57984734   2.34652901  -0.25242990
H    6.32464790   2.70445895  -1.51770949

