%chk=mol_6174.chk
# wB97XD/Def2SVP opt pop=full gfinput

C 4 H 4 N 2 O 1

1 2
O    4.996190  -1.957019   0.200160
C    3.957219   0.094524   0.025152
C    5.500143   2.443813  -0.025795
N    4.541031   4.688505  -0.207586
N    6.603553   6.435840  -0.195435
C    8.681723   5.159557  -0.008220
C    8.291079   2.380016   0.130542
H    1.901820   0.383955  -0.103954
H   10.577931   6.000278   0.047073
H    9.148958   1.429049  -1.483359
H    8.962442   1.625486   1.926330

