%chk=mol_4597.chk
# wB97XD/Def2SVP opt freq pop=full gfinput

C 4 H 10 N 2 O 1

1 2
C    1.21073949   2.38383913   1.96517920
C    0.83239973   1.14973962   1.16604948
C    2.01101923   0.60839975   0.36508986
O    1.56077933  -0.54610986  -0.36109984
C    2.47317910  -1.13110960  -1.17241967
N    3.68034863  -0.69996977  -1.32644951
N    4.40707874  -1.43856943  -2.19933915
H    0.34735987   2.74973893   2.52884912
H    1.55153942   3.18765879   1.30573952
H    2.01125908   2.15945935   2.67653894
H    0.00392000   1.38557947   0.48637983
H    0.45595983   0.36960986   1.83960938
H    2.82364893   0.31873986   1.04076958
H    2.36655903   1.37088954  -0.33740988
H    2.03468919  -2.01070929  -1.67276943
H    5.38810825  -1.15193951  -2.14539909
H    4.13113832  -1.23454952  -3.16397882

