%chk=mol_5651.chk
# wB97XD/Def2SVP opt freq pop=full gfinput

C 5 H 9 N 1 O 1

1 2
N    2.21997905  -0.42630985  -1.49553943
C    2.39994907   0.06654997  -0.12902996
C    3.34380889   1.27323961  -0.07107998
C    3.55165863   1.76842928   1.36717951
O    3.55316854   3.21311903   1.35613942
C    2.99435878   3.52479863   0.13598995
C    2.82925892   2.51521897  -0.70814973
H    1.62924933  -1.25682962  -1.48178947
H    3.11765862  -0.71701974  -1.88082933
H    2.80284905  -0.74483973   0.48796985
H    1.41604948   0.32836986   0.27757990
H    4.31144857   1.01361954  -0.51972979
H    4.50660801   1.41950941   1.77524936
H    2.75346899   1.44013941   2.04474926
H    2.78333902   4.57071829  -0.01572999
H    2.43794918   2.58270907  -1.71275938

