%chk=mol_6489.chk
# wB97XD/Def2SVP opt pop=full gfinput

C 5 H 7 N 1 S 1

1 2
C    1.606570   0.025511  -0.007446
C    4.423754   0.055520  -0.008031
C    6.085277   2.062088  -0.011017
N    5.402897   4.509756  -0.012264
C    8.652829   1.281726  -0.014645
C    8.883357  -1.310204  -0.013228
S    6.008894  -2.778729  -0.008201
H    0.814548   1.935722   0.015987
H    0.886319  -0.966992   1.660767
H    0.886622  -0.926797  -1.699015
H    6.683073   5.937312   0.035338
H    3.578310   5.091470   0.043936
H   10.263707   2.540661  -0.019011
H   10.603896  -2.413709  -0.015534

