%chk=mol_4843.chk
# wB97XD/Def2SVP opt freq pop=full gfinput

C 5 H 7 N 1 O 1

1 2
C    0.85609967  -0.22326992  -0.13113995
C    2.34408903  -0.02201999   0.12088995
O    3.09275889  -0.72856975  -0.85799968
C    2.73593903   1.42171943   0.04226999
C    3.33789873   2.08536935   1.04213965
C    3.69691873   3.45693874   0.93242967
N    3.98235869   4.57629824   0.84467965
H    0.24976991   0.29351988   0.61967981
H    0.60806978  -1.29003954  -0.10575996
H    0.56607974   0.14076994  -1.12359953
H    2.60286903  -0.44740981   1.09672952
H    2.80823898  -0.42390984  -1.73597944
H    2.51498890   1.94077933  -0.88895971
H    3.57920861   1.59032941   1.97649932

