%chk=mol_5745.chk
# wB97XD/Def2SVP opt pop=full gfinput

C 5 H 9 N 1 O 1

1 2
N    1.932585  -0.011414   0.347672
C    4.667624   0.000000   0.000000
C    5.427350  -1.409887  -2.418358
C    4.284236  -0.346009  -4.844748
O    5.161693  -1.784827  -6.949355
C    5.578509   2.572238   0.000000
C    6.329260   4.692322   0.000000
H    1.509853   0.855649   2.014750
H    1.313738  -1.826515   0.506976
H    5.512804  -1.005089   1.604037
H    4.891877  -3.409331  -2.257164
H    7.495863  -1.418013  -2.602115
H    4.811356   1.628320  -5.155985
H    2.221184  -0.473698  -4.823753
H    6.954135  -1.425987  -7.143524
H    6.984844   6.596335  -0.002816

