%chk=mol_6137.chk
# wB97XD/Def2SVP opt freq pop=full gfinput

C 4 H 4 N 2 O 1

1 2
O    1.92907929  -0.78341967  -0.76910973
C    2.01684928   0.11436996   0.06374998
C    3.10580873   1.13208961   0.06490998
C    2.66153884   2.48229885   0.48991981
N    2.85301900   3.39243865  -0.40608984
N    3.44943881   2.76884890  -1.54387939
C    3.58807874   1.50911951  -1.28586948
H    1.33250952   0.13618995   0.92932969
H    3.92497849   0.78995973   0.70068973
H    2.23182917   2.66979909   1.48304951
H    4.03125858   0.77594972  -1.97356927

