%chk=mol_6010.chk
# wB97XD/Def2SVP opt freq pop=full gfinput

C 4 H 5 N 1 O 2

1 2
O    0.94119966  -0.09218997   0.00617000
C    2.26062918   0.02925999   0.00129000
C    3.07707882   1.13042951   0.00017000
O    2.60125899   2.38406920   0.00433000
C    4.41798830   0.70006973  -0.00583000
C    4.38490820  -0.68023974  -0.00824000
N    3.06822872  -1.07551956  -0.00387000
H    0.61001980   0.82756972   0.00913000
H    3.34353876   3.01257896   0.00262000
H    5.31215811   1.30770957  -0.00817000
H    5.17908812  -1.41531944  -0.01265000
H    2.72853899  -2.02699924  -0.00431000

