%chk=mol_6978.chk
# wB97XD/Def2SVP opt freq pop=full gfinput

C 5 H 12 N 2

1 2
C    2.78028893  -1.08343959  -0.51924980
C    2.21859908   0.24622990  -0.04307998
C    3.29465866   1.27567947   0.12769996
N    3.46493864   2.34831905  -0.85112971
C    2.91262889   2.69685888   0.46202984
C    3.73588848   3.48763871   1.42969942
N    3.44689870   4.90263796   1.22845948
H    1.97507930  -1.81375933  -0.64528978
H    3.49437881  -1.48721933   0.20631991
H    3.29996872  -0.97242963  -1.47611952
H    1.71837926   0.09547997   0.92052966
H    1.45288944   0.58853978  -0.74976975
H    4.20011854   0.88109970   0.57541978
H    2.72234893   2.34084916  -1.55266941
H    1.85819936   2.94867873   0.50382978
H    4.80781841   3.30693865   1.28976953
H    3.47618866   3.20137858   2.45348907
H    3.70100880   5.13837814   0.26826990
H    4.06604862   5.45086813   1.82246935

