%chk=mol_5760.chk
# wB97XD/Def2SVP opt freq pop=full gfinput

C 6 H 9 N 1

1 2
C    1.20996952  -0.25153992   0.00379000
C    2.65747881   0.22946991  -0.02169999
C    2.87335896   1.51696944   0.72851974
C    3.83900833   1.33311951   1.63438940
C    4.35105848  -0.03020999   1.61654937
C    3.42943883  -1.16960955   1.92850924
N    3.62755871  -0.76559973   0.53773981
H    1.11556959  -1.22746956  -0.48412982
H    0.56640983   0.45195982  -0.53602982
H    0.81372970  -0.33822986   1.02034962
H    2.94274902   0.39699984  -1.06814969
H    2.34397912   2.43762898   0.53959978
H    4.21008825   2.09373927   2.30748916
H    5.42314768  -0.17875993   1.63805938
H    3.87641859  -2.11683917   2.20598912
H    2.48321891  -0.96749961   2.41325903

