%chk=mol_4668.chk
# wB97XD/Def2SVP opt freq pop=full gfinput

C 5 H 11 N 1 O 1

1 2
C    1.07570958   0.02371999   0.14456995
C    2.58627915  -0.02043999  -0.07713997
N    2.88058901  -0.70535976  -1.33767951
C    3.15240884   1.39249957  -0.11490995
C    3.19986868   2.15532899   1.21778953
O    4.59264851   2.49495912   1.01433957
C    4.68254805   1.52200949  -0.05721998
H    0.83525968   0.50332981   1.09931958
H    0.65021974  -0.98563963   0.16324994
H    0.56915981   0.59270978  -0.64405978
H    3.04671884  -0.59107977   0.73795974
H    2.36957908  -0.26404992  -2.10243917
H    2.53097892  -1.66291940  -1.29401958
H    2.71883917   2.00326920  -0.91950965
H    3.07158875   1.55961943   2.12697911
H    2.56591892   3.04498887   1.26634955
H    5.14734840   1.94431925  -0.95231962
H    5.23764801   0.63566977   0.26569989

