%chk=mol_6223.chk
# wB97XD/Def2SVP opt freq pop=full gfinput

C 5 H 5 N 1 O 1

1 2
O    1.77016926  -0.55098981  -0.75229973
C    2.16828918   0.39558986  -0.08060998
C    1.67630935   0.52158982   1.28090954
C    1.26316953   0.61646974   2.40587926
N    3.06562877   1.34106946  -0.57564980
C    4.11537838   1.91602921   0.21279992
C    2.97859907   2.73960900  -0.27443990
H    0.88875967   0.68777978   3.40061879
H    5.06200790   1.96323931  -0.30860987
H    4.15710831   1.62165928   1.25205958
H    2.20035911   3.03920889   0.41333982
H    3.11861873   3.37101865  -1.14155960

