%chk=mol_6759.chk
# wB97XD/Def2SVP opt freq pop=full gfinput

C 6 H 9 N 1

1 2
C    0.89304966  -0.01957999   0.12957995
C    2.40750933  -0.00486000  -0.03953999
C    3.14684892   1.02999961   0.85062969
N    4.13036871  -0.00986000   1.22745955
C    3.16378880  -1.05380964   0.81936967
C    2.78327894   0.01929999  -1.45029938
C    3.09013891   0.03905999  -2.61226892
H    0.60664976  -0.03812999   1.18724954
H    0.45072985  -0.90317965  -0.34451985
H    0.43654984   0.87099969  -0.31722990
H    2.56968904   1.40027952   1.70699942
H    3.57923865   1.89668930   0.33926988
H    4.96162796   0.00582000   0.63357979
H    3.61010861  -1.89761925   0.28234988
H    2.59293914  -1.45894945   1.66410935
H    3.36037874   0.05651998  -3.64260864

