%chk=mol_5184.chk
# wB97XD/Def2SVP opt freq pop=full gfinput

C 4 H 10 N 2 O 1

1 2
C    0.95834965   0.06310998   0.63023978
N    2.27266932   0.19356993   0.04080999
C    2.99050903   1.36285949   0.02272999
N    2.46529913   2.54083896   0.09897996
C    4.50996828   1.25457954  -0.04287998
C    5.14546776   2.41454911  -0.79766971
O    5.01929808   3.62438869  -0.05687998
H    0.62037975  -0.97488964   0.55190980
H    0.22674991   0.69161975   0.11371996
H    0.98371959   0.33494988   1.69022930
H    2.82968903  -0.65184975   0.12932995
H    1.44651949   2.45858908   0.11891995
H    4.77685833   0.31136987  -0.53229982
H    4.87407827   1.22466958   0.99061960
H    4.68617821   2.55927920  -1.78068936
H    6.21400738   2.22769928  -0.94117963
H    4.05515862   3.69919848   0.12889996

