%chk=mol_6247.chk
# wB97XD/Def2SVP opt freq pop=full gfinput

C 5 H 10 N 2

1 2
C    1.06077957   0.07501997   0.01527999
C    2.58153915  -0.05079998  -0.01724999
C    3.04809880  -1.27284944  -0.79687971
C    3.35702872  -0.62160975  -2.10900927
C    3.60214853  -1.42992949  -3.33749890
N    3.41183853   0.67357975  -2.08482933
N    3.18566871   1.03024960  -0.79623967
H    0.75807971   0.99597961   0.52465981
H    0.61933976  -0.76902974   0.55534983
H    0.62925977   0.08943997  -0.99152964
H    2.96914887  -0.06198998   1.00660968
H    2.28789926  -2.04959917  -0.90742964
H    3.97219849  -1.69579935  -0.39255986
H    3.77114844  -0.77705973  -4.19776869
H    2.73419905  -2.06478930  -3.53275871
H    4.48157835  -2.06119919  -3.18508863
H    2.68918896   1.91948938  -0.72069973

