%chk=mol_4710.chk
# wB97XD/Def2SVP opt freq pop=full gfinput

C 4 H 7 N 1 O 2

1 2
C    1.02774966  -0.06181998   0.05593998
C    2.53307915  -0.11577996  -0.04745998
N    3.10719872  -1.38350952  -0.12922995
C    3.24590874   1.02574956  -0.04012998
C    4.71926832   1.12923956  -0.05059998
O    5.35292816  -0.01761999   0.26593989
O    5.29439783   2.17816901  -0.28954989
H    0.65092975   0.96454960   0.11818995
H    0.69045979  -0.59637976   0.95027965
H    0.57232976  -0.53179979  -0.82211965
H    2.39477921  -2.11612916  -0.05263998
H    3.54415870  -1.50947940  -1.05165958
H    2.75550890   1.99399924  -0.00891000
H    4.69453812  -0.72761971   0.45951983

