%chk=mol_5417.chk
# wB97XD/Def2SVP opt freq pop=full gfinput

C 4 H 7 N 1 O 2

1 2
C    3.59528875  -1.18911958  -0.61135978
O    4.48682833  -0.07714996  -0.67424977
C    4.28791857   0.83924967   0.31207991
O    3.41611862   0.79745972   1.16920960
C    5.24398804   1.96836925   0.20045991
C    5.68931818   2.71821904   1.42955947
N    6.57243776   1.74419940   0.80477971
H    3.85060859  -1.87492931  -1.42396951
H    2.56091905  -0.85901970  -0.74976975
H    3.70901871  -1.72112930   0.33841988
H    5.23625803   2.49354911  -0.74661970
H    5.26787806   2.43617916   2.38765907
H    5.95893812   3.76182866   1.33014953
H    7.29536724   2.20183897   0.24764991

