%chk=mol_5074.chk
# wB97XD/Def2SVP opt freq pop=full gfinput

C 5 H 11 N 1 O 1

1 2
C    2.96971893  -0.51696980   1.39471948
N    2.57970905   0.20088992   0.18559992
C    3.06161904   1.60123944   0.11514996
C    2.54195905   2.19132924  -1.20449948
C    2.56569886   2.45982909   1.28486955
C    4.59291840   1.60917938   0.02634999
O    5.32533836   2.36289907   0.66440970
H    2.62810898  -1.55426943   1.31548953
H    2.50996900  -0.09234996   2.29161906
H    4.05564833  -0.54634976   1.52267933
H    1.56029940   0.19740993   0.12479995
H    2.88307905   1.60833943  -2.06865931
H    2.90746880   3.21546888  -1.34799957
H    1.44642937   2.22124910  -1.22900951
H    3.01615906   2.15617919   2.23646927
H    1.47655940   2.40367913   1.38860941
H    2.82939911   3.51411867   1.13679957
H    5.02506828   0.89915967  -0.70107979

