%chk=mol_6167.chk
# wB97XD/Def2SVP opt freq pop=full gfinput

C 4 H 8 N 2 O 1

1 2
O    1.62328935  -0.26781988   0.94441962
C    2.49508905  -0.04166998  -0.15579994
C    3.04649878   1.37327945  -0.11917996
N    3.97415853   1.77723932  -0.94897968
C    4.17811823   3.20939875  -0.57994980
C    2.99479890   3.59848857   0.31457987
N    2.55779910   2.30029917   0.77039969
H    2.16977906  -0.14002994   1.74100935
H    1.93354928  -0.17997992  -1.08405960
H    3.31772876  -0.76219970  -0.12395996
H    5.12828827   3.30319858  -0.04207999
H    4.22080851   3.83479857  -1.47719944
H    2.20496917   4.08045864  -0.27165991
H    3.29063892   4.25420809   1.13773954
H    1.58011937   2.18499923   1.02260959

