%chk=mol_6067.chk
# wB97XD/Def2SVP opt freq pop=full gfinput

C 4 H 7 N 1 O 2

1 2
O    0.93417966   0.00622000   0.20744991
C    2.36261916   0.02273999   0.15616995
C    2.85606885   1.22449946  -0.63758975
O    4.21507835   0.99524963  -0.99526966
N    4.30728865   0.00530000  -1.99533927
C    3.65066862  -1.07560956  -1.70003939
C    2.86849904  -1.28722954  -0.43552986
H    0.64379972   0.81782973   0.66026974
H    2.72172904   0.08952997   1.19039965
H    2.80006909   2.13127923  -0.02655999
H    2.24861932   1.41000938  -1.53257942
H    3.70955873  -1.92668927  -2.39753914
H    2.04510927  -1.97564936  -0.65633970
H    3.53671861  -1.79681933   0.26803988

