%chk=mol_2859.chk
# wB97XD/Def2SVP opt freq pop=full gfinput

C 6 H 10 O 1

1 2
C    0.90247965   0.08553997  -0.05362998
C    2.41344905  -0.08710996  -0.04048999
C    3.12985897   1.26353955   0.02736999
C    4.62483835   1.10577953   0.03074999
C    5.37915802   1.14259958   1.14026964
C    5.31303787   0.93880963  -1.27713943
O    4.71207857   0.92074966  -2.34441900
H    0.40998986  -0.89146972  -0.07730997
H    0.58086979   0.64966971  -0.93464965
H    0.55973983   0.61698973   0.83971971
H    2.71777892  -0.63717979  -0.93890965
H    2.69458914  -0.70229971   0.82324964
H    2.81153893   1.79581940   0.93320966
H    2.82339883   1.89816928  -0.81343973
H    4.92343807   1.27363956   2.11769915
H    6.45955753   1.03986967   1.11712956
H    6.41031790   0.83309966  -1.23413956

