%chk=mol_5039.chk
# wB97XD/Def2SVP opt pop=full gfinput

C 4 H 6 N 2 O 1

1 2
C    5.482889  -2.107366   0.965234
N    4.412076   0.233324   0.046487
C    5.810851   2.353125   0.026702
C    4.966163   4.767288  -0.398543
O    6.998185   6.346267  -0.256001
C    8.957321   4.753304   0.247649
N    8.352060   2.352747   0.440854
H    4.128560  -3.644998   0.681889
H    5.896890  -1.985686   2.988999
H    7.213538  -2.601661  -0.055463
H    2.501752   0.346425   0.142939
H    3.163175   5.628455  -0.801508
H   10.801504   5.607819   0.439531

