%chk=mol_3452.chk
# wB97XD/Def2SVP opt freq pop=full gfinput

C 5 H 12 O 2

1 2
C    2.06493926  -0.83628970   0.67429972
O    1.95439923   0.17932993  -0.31176987
C    2.70149922   1.36981952  -0.04006998
C    2.40072918   2.35011911  -1.18271947
C    2.25452900   2.02350926   1.27357948
O    4.10719824   1.12195957   0.07885997
C    4.72161818   0.58218980  -1.08214962
H    1.58631945  -1.73919940   0.28334990
H    1.53739941  -0.55095983   1.58951938
H    3.10994864  -1.07329965   0.89522970
H    2.58317900   1.88926923  -2.15979910
H    3.02560878   3.24706888  -1.11573958
H    1.34581947   2.64653921  -1.17875957
H    2.55378890   1.42161942   2.13942909
H    1.16695952   2.14335918   1.31191957
H    2.72839880   3.00294900   1.40697944
H    5.73609781   0.27373990  -0.81331968
H    4.80131817   1.33958948  -1.86646938
H    4.18495846  -0.29574990  -1.45288944

