%chk=mol_6871.chk
# wB97XD/Def2SVP opt freq pop=full gfinput

C 5 H 12 N 2

1 2
C    0.97723961   0.00112000   0.02199999
C    2.50332904   0.01364999  -0.01104000
N    2.92666888   0.13315995  -1.41898954
C    3.09413886   1.13942957   0.83644968
C    4.47597790   0.62210977   1.18935966
N    4.28254843  -0.80682969   1.42989945
C    3.12097883  -1.24629951   0.63635975
H    0.60298979  -0.09314996   1.04791963
H    0.57396978  -0.84057969  -0.55321974
H    0.56147975   0.92593968  -0.39494982
H    3.94356847   0.10494996  -1.47800946
H    2.64121890   1.03939962  -1.78738940
H    2.50650907   1.28510952   1.75295937
H    3.13464904   2.10196924   0.31479988
H    5.17323780   0.77514970   0.35762987
H    4.88522816   1.12051964   2.07267928
H    5.11363792  -1.33140945   1.16164958
H    3.42146873  -1.99055934  -0.11123996
H    2.41140890  -1.73766935   1.31223953

