%chk=mol_6017.chk
# wB97XD/Def2SVP opt freq pop=full gfinput

C 4 H 3 N 1 O 2

1 2
O    1.00495970  -0.00778000   0.17735994
C    2.22462916  -0.01885999   0.06749998
C    2.94685888   1.25955951  -0.01776999
C    4.27065802   1.22147954  -0.14034994
O    5.01060820   0.05145998  -0.19150993
C    4.25312805  -1.07579958  -0.10199996
N    2.97585893  -1.15929949   0.01795999
H    2.36997914   2.17186928   0.02232999
H    4.90825844   2.09177923  -0.21259992
H    4.89916849  -1.96579933  -0.14670993

