%chk=mol_4160.chk
# wB97XD/Def2SVP opt freq pop=full gfinput

C 6 H 11 N 1

1 2
C    1.09998953   0.07191998   0.08871996
C    0.62197977   0.60014981   1.41101956
C   -0.32338989  -0.21450992   2.25688910
C    1.09612966  -0.00735000   2.70600891
C    2.53488898   0.43334982  -0.16943994
C    3.60996866  -0.62350976  -0.11399996
N    3.17751884  -0.06061998  -1.38925946
H    0.96008968  -1.01457953   0.03365999
H    0.47560984   0.50857979  -0.69984972
H    0.47289982   1.67457938   1.38626945
H   -0.60646981  -1.20583951   1.92083931
H   -1.10797966   0.31070989   2.79003882
H    1.27121949   0.65944976   3.54295874
H    1.76989925  -0.85655963   2.66804910
H    2.77756882   1.45101941   0.10906996
H    3.32825875  -1.65277934   0.06391998
H    4.59692812  -0.34340990   0.23214991
H    3.85578847   0.61693978  -1.73851931

