%chk=mol_3071.chk
# wB97XD/Def2SVP opt pop=full gfinput

C 6 H 10 O 1

1 2
C    1.859812  -0.088912   0.377737
C    4.712863  -0.086984  -0.129333
C    5.306143  -1.446944  -2.622619
O    4.463023  -3.999794  -2.537940
C    5.706614   2.641913  -0.146397
C    8.486231   2.747473  -0.157924
C   10.752769   2.843603  -0.172003
H    1.432337   0.857350   2.168139
H    1.121874  -2.017528   0.504500
H    0.832500   0.894124  -1.126598
H    5.605873  -1.140185   1.420810
H    7.335936  -1.472097  -3.018630
H    4.361431  -0.521186  -4.214203
H    5.400157  -4.841006  -1.198804
H    5.023912   3.640123   1.537576
H    4.960078   3.665048  -1.786849
H   12.765289   2.934858  -0.187064

