%chk=mol_1722.chk
# wB97XD/Def2SVP opt pop=full gfinput

C 6 H 13 N 1

1 2
C    2.197203  -0.022431   0.073775
N    4.893824   0.313638   0.501817
C    5.645576   2.975412   0.674727
C    4.491274   4.332802   2.949919
C    8.492070   2.946631   0.904801
C   10.135206   3.025716  -1.424457
C   10.025545   5.275378   0.305380
H    1.801627  -2.030454  -0.236669
H    1.549216   1.013517  -1.596705
H    1.082038   0.557526   1.716041
H    5.852595  -0.489212  -0.964535
H    5.098727   3.974340  -1.058171
H    4.903821   3.335045   4.717871
H    2.440033   4.517372   2.769205
H    5.266724   6.245810   3.128007
H    9.130816   1.804953   2.486747
H    9.242443   3.194034  -3.262574
H   11.845465   1.895943  -1.425893
H   11.656606   5.663736   1.481356
H    9.051580   6.951074  -0.353492

