%chk=mol_3227.chk
# wB97XD/Def2SVP opt pop=full gfinput

C 5 H 8 O 2

1 2
C    3.944728  -0.036906   0.804362
C    3.942007   2.313025  -0.132640
O    5.873703   4.017029  -0.260083
C    8.255760   3.267110   0.774788
C   10.123263   5.392012   0.288504
C   12.689246   4.817630   1.360527
O   13.218483   2.892660   2.538601
H    2.229197  -1.159290   0.753131
H    5.601186  -0.912076   1.628358
H    2.255520   3.142123  -0.951855
H    8.921719   1.531188  -0.142164
H    8.060664   2.936880   2.812366
H    9.444945   7.161079   1.122214
H   10.323649   5.716951  -1.746372
H   14.134623   6.283226   1.025195

