%chk=mol_0518.chk
# wB97XD/Def2SVP opt pop=full gfinput

C 4 H 10 N 2

1 2
N    1.942355   0.037549   0.144848
C    4.686823  -0.015968  -0.097415
C    5.858963   1.970058   1.698675
C    7.852171  -0.071885   2.374006
C    5.796716  -2.045610   1.714038
N    6.920310  -4.106564   0.260423
H    1.068791  -1.458037  -0.696666
H    1.132286   1.618135  -0.596530
H    5.415445   0.035376  -2.034120
H    4.691472   2.533197   3.318038
H    6.604933   3.670056   0.792211
H    9.510973  -0.028875   1.130094
H    8.493657  -0.066670   4.338377
H    4.628317  -2.627551   3.321572
H    7.985642  -3.550304  -1.243289
H    5.610956  -5.333166  -0.437661

