%chk=mol_4170.chk
# wB97XD/Def2SVP opt freq pop=full gfinput

C 4 H 6 N 2 O 1

1 2
C    1.31137955   0.13028996   0.00515000
C    2.78314900   0.06625997  -0.00047000
N    3.66212845   1.04177964  -0.00618000
C    4.84933805   0.35508984  -0.00895000
C    6.15445805   1.04061961  -0.01586999
N    4.73190832  -0.97889966  -0.00529000
O    3.34897876  -1.17576957   0.00056000
H    0.86593968  -0.86909962  -0.00430000
H    0.95287961   0.67231977  -0.87484962
H    0.95892966   0.65311974   0.89909971
H    6.98499727   0.32772988  -0.00861000
H    6.25000763   1.68305933   0.86476970
H    6.24986792   1.66511941  -0.90932965

