%chk=mol_0600.chk
# wB97XD/Def2SVP opt freq pop=full gfinput

C 5 H 8 O 1

1 2
C    0.80021971   1.40204954  -0.57154977
C   -0.34360987   0.88692969   0.26080990
C   -1.35968947  -0.05420998  -0.28925988
O   -0.75435972  -1.35864949  -0.27877989
C    0.67524976  -1.19888949  -0.28333992
C    0.94969970   0.15909994   0.26380992
H    0.74586970   1.30079961  -1.64901936
H    1.30509961   2.30166912  -0.23559992
H   -0.65275979   1.41254950   1.15110958
H   -2.26437902  -0.08775997   0.32344988
H   -1.63468933   0.19892992  -1.31773949
H    1.11329949  -1.98833930   0.33292988
H    1.03850961  -1.30519950  -1.31044948
H    1.55567944   0.16991994   1.15732956

