%chk=mol_6764.chk
# wB97XD/Def2SVP opt freq pop=full gfinput

C 7 H 10

1 2
C    1.85522926  -0.25387990   0.25584990
C    0.88285965  -1.39055943   0.61545980
C   -0.08768997  -0.85613966  -0.46471983
C   -1.45257950  -0.54170978  -0.00130000
C   -1.51055944   0.71987969   0.44036984
C   -0.20514992   1.45223951   0.33327988
C    0.69547969   0.48551983  -0.44739982
H    2.64839911  -0.56585979  -0.43339983
H    2.31128931   0.26502991   1.10294950
H    1.26714957  -2.39954925   0.43888983
H    0.51471984  -1.33547950   1.64702940
H   -0.04543998  -1.39139950  -1.41901946
H   -2.27756929  -1.24021947  -0.01425999
H   -2.40479922   1.18033957   0.83974969
H    0.19439994   1.67503941   1.32771957
H   -0.33714986   2.38991928  -0.21569993
H    0.95250964   0.87085968  -1.44137955

