%chk=mol_0502.chk
# wB97XD/Def2SVP opt pop=full gfinput

C 4 H 8 N 2

1 2
C    2.096953   0.408540  -0.054160
N    4.424472   0.659514  -1.505696
C    6.345927   1.470396  -0.254981
N    8.724639   1.850987  -1.248750
C   10.889112   1.328799   0.409598
C   10.192918   3.982144  -0.240449
H    1.590960  -1.590564   0.104388
H    0.565217   1.378895  -1.047607
H    2.204347   1.201223   1.856032
H    6.218937   1.930525   1.780935
H   12.440634   0.444671  -0.584266
H   10.429360   0.582395   2.254840
H    9.231483   5.143589   1.135763
H   11.256229   4.952594  -1.688981

