%chk=mol_1621.chk
# wB97XD/Def2SVP opt pop=full gfinput

C 7 H 10

1 2
C    5.701455  -2.199037  -0.970733
C    4.614995   0.128955   0.313808
C    6.475921   2.263760   0.331893
C    6.689914   4.010793  -1.902444
C    5.545288   4.956487   0.530597
C    6.961657   6.707451   2.036218
C    8.143681   8.175408   3.299122
H    4.326962  -3.743888  -0.945997
H    7.417439  -2.843622  -0.010488
H    6.191631  -1.798282  -2.940660
H    4.113046  -0.338733   2.267671
H    2.864390   0.681265  -0.647118
H    8.199843   1.769899   1.327344
H    5.434361   3.731132  -3.496900
H    8.561177   4.659668  -2.429602
H    3.513662   5.253779   0.527441
H    9.194255   9.476239   4.418785

