%chk=mol_0411.chk
# wB97XD/Def2SVP opt pop=full gfinput

C 4 H 12 N 2

1 2
C    2.257524  -0.525004   1.762434
C    5.002899  -0.634665   0.905065
C    6.238534   1.986329   0.591428
N    6.301367   3.374389   3.008198
C    8.957019   1.735751  -0.479329
N   10.753222   0.721592   1.379047
H    1.433584  -2.423649   1.739304
H    1.133061   0.675936   0.511662
H    2.092777   0.198383   3.693866
H    5.069096  -1.625410  -0.914079
H    6.075999  -1.792216   2.248642
H    5.125278   3.094597  -0.760898
H    7.075758   2.203118   4.330874
H    4.499324   3.698440   3.600193
H    9.626869   3.606637  -1.071985
H    8.954770   0.525779  -2.158899
H   10.796591   1.970890   2.849858
H   12.519833   0.763638   0.614633

