%chk=mol_3896.chk
# wB97XD/Def2SVP opt freq pop=full gfinput

C 5 H 7 N 1 O 1

1 2
C    0.95448959  -0.01075000   0.05155998
C    2.43533897   0.05292998   0.03480999
C    3.28842878   1.13911963  -0.04056999
C    4.61804819   0.64477974  -0.02951999
C    4.54149818  -0.72807974   0.05464998
N    3.22362876  -1.06188953   0.10767996
O    2.75952911  -2.36076903   0.22549991
H    0.51918977   0.99378961   0.07547997
H    0.59606975  -0.55667979   0.93063962
H    0.58380973  -0.51645982  -0.84691966
H    2.98659897   2.17772937  -0.09495997
H    5.52915764   1.22799945  -0.07248997
H    5.30886793  -1.48860943   0.09609997
H    2.20320916  -2.39672923  -0.56865978

