%chk=mol_2677.chk
# wB97XD/Def2SVP opt pop=full gfinput

C 6 H 10 O 1

1 2
C    4.667586  -0.809275  -2.985238
C    4.737713   0.262218  -0.320327
C    6.555535   2.492946  -0.030595
O    6.605046   3.215482   2.602304
C    5.937066   5.842258   2.810665
C    5.439463   6.711514   0.199593
C    5.784527   4.815400  -1.416293
H    3.436486  -2.470080  -3.050415
H    6.555649  -1.388684  -3.600080
H    3.934580   0.571019  -4.338830
H    5.298565  -1.237185   0.999835
H    2.824479   0.818062   0.256852
H    8.475988   1.934456  -0.563856
H    7.512341   6.863617   3.675234
H    4.262977   6.009650   4.010925
H    4.890101   8.612200  -0.294023
H    5.572651   4.939215  -3.441135

