%chk=mol_3609.chk
# wB97XD/Def2SVP opt freq pop=full gfinput

C 7 H 12

1 2
C    2.84519911  -0.87211967  -1.04417968
C    2.44147897  -0.05116998   0.17230994
C    3.00009894   1.38580942   0.16048993
C    2.42710900   2.17863917   1.34180951
C    4.53836870   1.46876943   0.12421995
C    5.19174814   0.82299966   1.27447951
C    5.72900772   0.29952988   2.21177912
H    2.33438921  -1.84037936  -1.02892959
H    3.92118835  -1.06770957  -1.05957961
H    2.57101917  -0.36024988  -1.97199917
H    2.75057912  -0.57880980   1.08227956
H    1.34537947  -0.00458000   0.20072992
H    2.63509893   1.87379932  -0.75385970
H    2.70447898   1.73347926   2.30294919
H    1.33319950   2.20803905   1.29197943
H    2.78687882   3.21292901   1.32761943
H    4.83934832   2.52352905   0.09049996
H    4.91323853   1.02172959  -0.80357969
H    6.20210743  -0.16394994   3.04663873

