%chk=mol_4057.chk
# wB97XD/Def2SVP opt pop=full gfinput

C 5 H 11 N 1 O 1

1 2
C    1.678625  -0.176765   0.234213
C    4.542202  -0.044579  -0.078991
C    5.376441  -0.095129  -2.843358
O    4.464724   2.081741  -4.138443
C    5.861874   1.985006   1.568076
N    7.717320   0.073850   2.394982
C    5.989884  -1.962216   1.592416
H    1.134006  -0.257929   2.230160
H    0.913456  -1.860813  -0.692074
H    0.758782   1.484871  -0.584776
H    4.675088  -1.784034  -3.813486
H    7.438529  -0.091916  -3.017874
H    2.668369   1.841670  -4.440403
H    4.717645   2.723794   3.130199
H    6.680673   3.594429   0.559170
H    9.360267   0.135871   1.386662
H    6.910936  -3.528969   0.602993
H    4.903159  -2.756884   3.168466

