%chk=mol_3449.chk
# wB97XD/Def2SVP opt freq pop=full gfinput

C 5 H 10 O 2

1 2
C    3.43381858   2.42647886   2.86690879
O    4.34142828   2.13775921   1.81079924
C    3.68399858   2.13235903   0.54342979
C    4.70768833   1.83678925  -0.55075979
C    5.88943768   2.80378890  -0.55141979
C    5.50792837   4.21954823  -0.90573967
O    4.43351841   4.54918861  -1.39880943
H    3.99191833   2.43334913   3.80680847
H    2.65830898   1.65703928   2.92527890
H    2.97930884   3.41148853   2.72373915
H    3.19816875   3.09941888   0.37573987
H    2.91288877   1.35318947   0.53827977
H    4.20752859   1.84269929  -1.52590942
H    5.10501814   0.82656974  -0.39341986
H    6.63431787   2.47825909  -1.28595948
H    6.38007784   2.82249904   0.42735982
H    6.29976797   4.97034788  -0.73971969

