%chk=mol_0646.chk
# wB97XD/Def2SVP opt freq pop=full gfinput

C 4 H 6 O 2

1 2
C    0.97791964   0.07456998  -0.15825994
C    2.41443896   0.30728990   0.14526995
O    3.30683875  -0.65961981  -0.42005986
C    3.38827872   0.67977971  -0.94173962
C    4.63368797   1.39037943  -0.60464978
O    4.69345856   2.61206913  -0.65721971
H    0.41613987   1.00794971  -0.05492998
H    0.55839980  -0.65548974   0.54076982
H    0.82770967  -0.30265990  -1.17524946
H    2.59096885   0.64321977   1.15833950
H    3.00548887   0.85593969  -1.93891919
H    5.49908781   0.77127969  -0.31588987

