%chk=mol_6103.chk
# wB97XD/Def2SVP opt freq pop=full gfinput

C 6 H 11 N 1

1 2
C    0.96546960  -0.02270999   0.05006998
C    2.46254897   0.03156999  -0.00257000
C    3.11638880   1.20952964  -0.03553999
C    4.61566830   1.27200961  -0.06073998
C    5.26880789  -0.07876997   0.26693988
N    4.60343838  -1.18261957  -0.42763981
C    3.19743872  -1.28684962  -0.02148999
H    0.60366982  -1.05580962   0.07524997
H    0.53109980   0.45796981  -0.83264971
H    0.59186977   0.47897980   0.94882965
H    2.57201910   2.14943910  -0.04659998
H    4.93196774   1.60898936  -1.05533957
H    4.96109819   2.01920915   0.66281974
H    6.32248783  -0.04830998  -0.03234999
H    5.25286818  -0.25570989   1.35018957
H    5.07437801  -2.05806923  -0.20897992
H    3.13288903  -1.74222934   0.97459966
H    2.70499897  -1.96818924  -0.72439969

