%chk=mol_6215.chk
# wB97XD/Def2SVP opt pop=full gfinput

C 5 H 9 N 1 O 1

1 2
O    3.136530  -1.689321  -1.454617
C    3.051284   0.076288   0.564839
C    5.050558   2.108953   0.157017
C    7.737540   1.017485   0.185949
C    9.763800   3.016438  -0.313713
C    9.972859   4.839400   1.768406
N   10.126608   6.279333   3.417570
H    1.797035  -2.913032  -1.155700
H    3.366755  -0.928763   2.345075
H    1.168569   0.931729   0.606413
H    4.846807   3.548698   1.630607
H    4.723503   3.027776  -1.671897
H    7.901021  -0.441799  -1.276812
H    8.089520   0.088326   2.006152
H    9.361722   4.008128  -2.086768
H   11.589482   2.067946  -0.558509

