%chk=mol_5708.chk
# wB97XD/Def2SVP opt freq pop=full gfinput

C 5 H 11 N 1 O 1

1 2
N    2.69189882  -0.57157975   1.29191959
C    2.31513906   0.07674997   0.04097999
C    2.73229885   1.52093947   0.05218998
C    1.82651925   2.51773906   0.06891997
C    4.21881866   1.82027936  -0.03388999
C    4.90205812   1.91722929   1.33242953
O    5.12219810   0.63397980   1.90636921
H    2.52496910  -1.57427931   1.19420958
H    2.03875923  -0.26335990   2.01467919
H    1.23422956  -0.03019999  -0.10828996
H    2.79865909  -0.43476981  -0.79973972
H    0.76059973   2.31876922   0.10888996
H    2.13126922   3.55987859   0.05580998
H    4.35976839   2.77256894  -0.55965978
H    4.70746851   1.05256963  -0.64720976
H    4.32142830   2.52395916   2.03483939
H    5.88440800   2.38735914   1.21673954
H    4.28216839   0.13131995   1.79069936

