%chk=mol_7051.chk
# wB97XD/Def2SVP opt pop=full gfinput

C 6 H 11 N 1

1 2
C    5.380560  -2.249133  -2.384929
C    4.976896  -0.890401   0.074947
C    3.465059  -1.835189   1.883433
C    6.317128   1.616793   0.392836
C    9.156611   1.444715   0.352283
C   10.635530   2.294298  -1.932132
N   10.638818   3.783572   0.388471
H    4.858032  -1.032339  -3.973716
H    4.240394  -3.971940  -2.513374
H    7.363583  -2.797003  -2.595388
H    2.487031  -3.623588   1.644685
H    3.155503  -0.841438   3.653219
H    5.766575   2.485708   2.194709
H    5.646256   2.909101  -1.085421
H    9.882530  -0.083167   1.507094
H    9.634995   3.124133  -3.513454
H   12.370412   1.316421  -2.401332
H   12.281954   3.528402   1.372300

