%chk=mol_6597.chk
# wB97XD/Def2SVP opt pop=full gfinput

C 4 H 6 N 2 S 1

1 2
C    5.378916  -2.420966   0.914798
N    4.492975  -0.025417  -0.067860
C    5.943567   2.100374  -0.011641
C    5.117321   4.561912  -0.380723
N    6.918930   6.448123  -0.245853
C    9.125771   5.406658   0.201596
S    9.160542   2.185204   0.491915
H    3.912905  -3.856005   0.647231
H    5.776307  -2.292937   2.941283
H    7.069787  -3.074301  -0.082165
H    2.581253   0.175404  -0.055917
H    3.176157   5.086009  -0.759405
H   10.836086   6.511259   0.378474

