%chk=mol_7059.chk
# wB97XD/Def2SVP opt freq pop=full gfinput

C 6 H 9 N 1

1 2
C    0.99999964   0.00000000   0.00000000
C    2.44399905   0.00000000   0.00000000
C    3.63415861   0.00000000   0.00000000
C    5.07815790   0.00000000   0.00000000
C    5.45929766   1.44748950   0.08060998
C    5.62975788   2.13020921   1.41464937
N    6.78842735   1.80570936   0.58840978
H    0.60608977   1.02090967   0.01193000
H    0.60594976  -0.52068985   0.87815964
H    0.60590976  -0.50005978  -0.89004964
H    5.47458792  -0.43813983  -0.92171967
H    5.47465801  -0.57477975   0.84401971
H    5.11198807   2.02824926  -0.76725972
H    5.51298809   1.54563940   2.31883907
H    5.36476803   3.17650890   1.49754941
H    7.14279747   2.63992906   0.11619996

