%chk=mol_4742.chk
# wB97XD/Def2SVP opt pop=full gfinput

C 5 H 11 N 1 O 1

1 2
C    3.596451  -0.142051  -2.384116
C    4.589597   0.466044   0.236178
N    5.899101   2.869266   0.283100
C    8.439347   3.067687  -0.266187
O    9.785569   1.250489  -0.771330
C    9.378957   5.773661  -0.187858
C   12.211883   5.961292  -0.602558
H    2.599281  -1.953542  -2.372664
H    5.136086  -0.256663  -3.761160
H    2.280484   1.318462  -3.030478
H    5.872645  -1.026953   0.873923
H    3.025414   0.596020   1.580813
H    4.870883   4.463722   0.516500
H    8.896509   6.588871   1.653057
H    8.391612   6.848330  -1.656855
H   13.244448   4.910831   0.851133
H   12.820847   7.935848  -0.528386
H   12.748451   5.187638  -2.444701

