%chk=mol_4828.chk
# wB97XD/Def2SVP opt freq pop=full gfinput

C 7 H 14

1 2
C    2.33523893  -0.42208984  -1.43865955
C    2.48545909   0.03958999   0.01009000
C    3.20790887  -1.02675962   0.83172971
C    3.27088881   1.34992945   0.05720998
C    2.56393886   2.61500907  -0.50805980
C    3.25433874   3.41555882   0.61360979
C    3.30476856   2.10151911   1.41884947
H    1.78923929   0.31892988  -2.03185916
H    1.78324938  -1.36661947  -1.49229944
H    3.31179881  -0.57028979  -1.91330922
H    1.48443949   0.18572992   0.43383983
H    4.22240829  -1.20121956   0.45528984
H    2.66500902  -1.97773921   0.80155969
H    3.29312897  -0.72318971   1.88055933
H    4.28151846   1.23036945  -0.36322987
H    1.47075939   2.60081887  -0.42640984
H    2.83998895   2.89745879  -1.52775943
H    4.24208832   3.80213857   0.33708987
H    2.66492891   4.22269821   1.05546963
H    4.20449829   1.95198917   2.02129912
H    2.42281914   1.94128919   2.04968929

