%chk=mol_5716.chk
# wB97XD/Def2SVP opt freq pop=full gfinput

C 7 H 16

1 2
C    0.96867967  -0.10477996  -0.02334999
C    2.50000906   0.00733000  -0.04400998
C    3.02994895  -0.84341973  -1.20793951
C    3.03059888   1.48682940  -0.04205999
C    2.59161901   2.27438903  -1.29168952
C    2.51617885   2.23744917   1.20613956
C    4.57416821   1.50108945   0.01881999
H    0.53670979   0.38410985   0.85405970
H    0.66312975  -1.15666962   0.02074999
H    0.51619983   0.32882985  -0.92063963
H    2.86003876  -0.46862984   0.87898964
H    2.70555878  -0.45292982  -2.17777920
H    2.66080904  -1.87122929  -1.12875962
H    4.12188864  -0.90055966  -1.20478952
H    2.96713877   1.81745934  -2.21201921
H    2.97729897   3.29993868  -1.26073956
H    1.50227940   2.34290910  -1.36608958
H    2.75343895   1.68691945   2.12278914
H    1.43337941   2.39231920   1.17173958
H    2.97504902   3.22941875   1.28784955
H    4.94097805   0.90376967   0.86045969
H    4.95527840   2.52083898   0.14591995
H    5.02245808   1.10862958  -0.89916962

