%chk=mol_2154.chk
# wB97XD/Def2SVP opt freq pop=full gfinput

C 6 H 8 O 1

1 2
C   -1.66672933   0.95685965   0.41803986
C   -1.38961947  -0.40754983  -0.14128993
C   -0.41450983  -1.36460948   0.38682985
C    0.79803967  -0.71507972  -0.17992993
O    1.70678937  -0.21351992   0.71853971
C    0.96468967   0.84619969   0.01637999
C   -0.50362980   0.74924976  -0.53712982
H   -2.53648901   1.48822951   0.04682998
H   -1.46226954   1.12584960   1.46886945
H   -2.05372930  -0.82004964  -0.88728964
H   -0.41089985  -1.39645946   1.48124945
H   -0.55645984  -2.37404919  -0.00854000
H    1.14989960  -1.16384959  -1.10216963
H    0.92393970   1.59933937   0.79378968
H   -0.64096981   1.16002953  -1.53731942

