%chk=mol_5484.chk
# wB97XD/Def2SVP opt freq pop=full gfinput

C 4 H 6 N 2 O 1

1 2
N    0.97638965  -0.00839000   0.68057972
C    2.36444926  -0.02838999   0.20005992
C    2.74205899   0.75019968  -1.03029966
O    4.13393831   1.11480963  -1.20029962
N    4.85376787  -0.08857997  -1.49558949
C    4.05192852  -1.09932959  -1.42802942
C    2.67788887  -0.74191970  -1.08805954
H    0.79796976   0.84560966   1.21137953
H    0.81084967  -0.77564973   1.33291948
H    3.11355877  -0.06887998   0.98880965
H    1.98858929   1.32597947  -1.55037940
H    4.34732866  -2.14291930  -1.60775948
H    1.87948930  -1.18971956  -1.66209936

