%chk=mol_6359.chk
# wB97XD/Def2SVP opt freq pop=full gfinput

C 5 H 5 N 1 O 1

1 2
O    1.04751956  -0.22564991   0.13795994
N    2.44697905  -0.14948995   0.11007996
C    2.86482882   1.06194961  -0.07373997
C    2.05009937   2.29499936  -0.24607991
C    2.58137918   3.51010871  -0.43187985
C    4.31268835   1.05850959  -0.09041996
C    5.51399755   1.05325961  -0.10390996
H    0.89699966  -1.17912960   0.28057989
H    0.97421962   2.16650915  -0.21423993
H    3.65164876   3.68374848  -0.47033983
H    1.93639934   4.37517834  -0.55193979
H    6.57899761   1.03695965  -0.11415996

