%chk=mol_0376.chk
# wB97XD/Def2SVP opt pop=full gfinput

C 4 H 8 N 2

1 2
C    1.836663  -0.009675  -0.122265
C    4.661973  -0.066310  -0.136571
C    6.004019  -2.218614  -0.199668
C    6.032705   2.404053   0.000189
N    5.136200   4.394199   1.353403
N    8.118490   2.826237  -1.216455
H    1.131776   1.233821  -1.618380
H    1.126655   0.675313   1.695821
H    1.028370  -1.887723  -0.443689
H    5.076371  -4.047264  -0.269210
H    8.054183  -2.232390  -0.115160
H    3.243809   4.584173   1.510949
H    6.042891   6.017757   0.886263
H    8.626052   1.265739  -2.240686

