%chk=mol_4996.chk
# wB97XD/Def2SVP opt freq pop=full gfinput

C 4 H 8 N 2 O 1

1 2
C    0.96105963  -0.06024998  -0.08511997
N    2.40325928   0.03602999  -0.17336993
C    3.02843881   1.28568947   0.23703991
C    4.50844812   1.20271957  -0.11259995
O    5.06898832   0.06030998   0.54397976
N    4.46272802  -1.16466951   0.15079994
C    3.19974899  -1.08357954  -0.12813994
H    0.48564979   0.90132964  -0.30590990
H    0.65922976  -0.37171987   0.92032963
H    0.57843977  -0.79068971  -0.80591971
H    2.56815886   2.13799930  -0.27373990
H    2.90163898   1.41236949   1.31842947
H    5.03644800   2.09243917   0.24337991
H    4.67429829   1.11413956  -1.19289958
H    2.65880895  -2.01020932  -0.38660985

