%chk=mol_5884.chk
# wB97XD/Def2SVP opt pop=full gfinput

C 4 H 6 N 2 O 1

1 2
N    2.008968  -0.451871  -0.772388
C    4.325130  -0.343647   0.318835
O    4.793101  -1.423039   2.303860
N    5.977657   1.077238  -1.045888
C    8.455372   1.577770  -0.030708
C    9.971121   2.948842  -1.899950
C   11.208324   4.075516  -3.434143
H    1.967394  -0.511398  -2.678876
H    0.820141  -1.672823   0.098020
H    5.174410   2.470987  -2.068097
H    9.347492  -0.218981   0.479783
H    8.232932   2.692992   1.699072
H   12.309884   5.069946  -4.795105

