%chk=mol_7105.chk
# wB97XD/Def2SVP opt freq pop=full gfinput

C 6 H 11 N 1

1 2
C    2.66964912  -0.99543965   1.40188956
C    2.42804909  -0.21863991   0.13711995
C    1.64368939  -0.68880969  -0.84557968
C    3.08793879   1.08235955   0.02671999
C    2.35511923   2.20143914  -0.12896995
C    4.60241842   1.06275964   0.07960997
N    5.23736811   2.22624898  -0.53899980
H    3.71923876  -1.29627955   1.48236942
H    2.06245923  -1.90712929   1.44016945
H    2.41061926  -0.39317986   2.27931905
H    1.15099955  -1.65255928  -0.76700968
H    1.47576952  -0.12555996  -1.75957930
H    1.27066958   2.17731929  -0.16021994
H    2.82606912   3.17648864  -0.20520993
H    4.97944832   0.16829994  -0.43218982
H    4.92405844   1.00270963   1.12514961
H    4.97638845   2.23939896  -1.52508938
H    6.24739742   2.09646916  -0.51901978

