%chk=mol_4302.chk
# wB97XD/Def2SVP opt freq pop=full gfinput

C 5 H 7 N 1 O 1

1 2
C    1.03096962   0.21678992   0.15023994
C    2.50283885   0.02508999  -0.17668994
C    3.27851892   1.28573954   0.03159999
O    3.68302870   1.52199948   1.38401937
C    4.73165846   1.24132955   0.43850985
C    5.57727766   2.36051917   0.15181994
N    6.27035761   3.25492859  -0.10608996
H    0.47815982  -0.71236974  -0.01855999
H    0.58803976   0.99785960  -0.47652984
H    0.89687967   0.51105982   1.19639957
H    2.60428905  -0.28426990  -1.22294962
H    2.90565872  -0.78777969   0.43906984
H    2.91502881   2.12306929  -0.55083978
H    5.21888828   0.27774990   0.51458979

