%chk=mol_3877.chk
# wB97XD/Def2SVP opt freq pop=full gfinput

C 4 H 6 N 2 O 1

1 2
C    0.87282968  -1.04318964   0.91338962
C    1.14670956  -0.30764988  -0.37463984
C    0.91424966   1.14133954  -0.55469984
O   -0.36353987   1.57762945  -0.09464996
C   -1.30894947   0.62527978   0.02548999
N   -1.16016960  -0.65337974  -0.05365998
N    0.03845998  -1.23403955  -0.28074989
H    1.50147939  -1.88781929   1.16758966
H    0.46056980  -0.51156980   1.76232934
H    1.99661934  -0.64701974  -0.95640969
H    1.67715931   1.71078932  -0.01455999
H    0.99296963   1.41071951  -1.61338949
H   -2.28752923   1.07917953   0.23994990

