%chk=mol_4132.chk
# wB97XD/Def2SVP opt freq pop=full gfinput

C 4 H 7 N 1 O 2

1 2
C    0.86910969  -0.04894998   0.08887997
C    2.37510920   0.01550999  -0.03002999
N    2.82552910   0.12169995  -1.43821943
C    3.12654877   1.03617954   0.84295970
O    3.80399847  -0.03137999   1.55987942
C    3.17382884  -1.01025963   0.84904963
O    3.30491877  -2.20702934   0.95795959
H    0.55380976  -0.10391997   1.13662958
H    0.46972981  -0.93173969  -0.42211983
H    0.39853984   0.83791971  -0.34957987
H    3.83305836   0.02107999  -1.57014942
H    2.54984903   0.97976959  -1.91271925
H    2.50519896   1.63069940   1.52067935
H    3.84443855   1.69478941   0.34304988

