%chk=mol_2512.chk
# wB97XD/Def2SVP opt freq pop=full gfinput

C 6 H 8 O 1

1 2
C    1.03132963  -0.08551997  -0.05169998
C    2.50478888   0.11257996  -0.06652997
O    3.14030862  -0.26665989  -1.29324961
C    3.14666867   1.13398957  -0.97399962
C    4.48269796   1.70692945  -0.63052976
C    5.02275801   2.20215917  -1.90261936
C    5.47297764   2.60913897  -2.93800902
H    0.57440978   0.55442983   0.70923972
H    0.79309970  -1.12601960   0.18938993
H    0.57411981   0.15372993  -1.01743960
H    2.98515892  -0.16211994   0.86256969
H    2.50053906   1.80188930  -1.53033936
H    5.14829826   0.95819962  -0.18831994
H    4.36492872   2.52622914   0.08554997
H    5.87242794   2.96399879  -3.86082864

