%chk=mol_3132.chk
# wB97XD/Def2SVP opt freq pop=full gfinput

C 5 H 10 O 2

1 2
C    0.97910964  -0.16701993   0.19907992
C    2.47542906   0.02677999   0.03317999
C    2.90028906   1.47157943   0.23013991
O    2.11704922   2.35437918   0.58153981
C    4.37793827   1.77523935  -0.00028000
O    4.82605839   1.45729947  -1.30894947
C    4.37990856   2.40365911  -2.27445912
H    0.71280974  -1.21838963   0.05506998
H    0.42363983   0.43022984  -0.53140980
H    0.65052974   0.13543996   1.19870949
H    2.77056909  -0.28829989  -0.97280961
H    3.01063895  -0.58767974   0.76451969
H    4.95116854   1.17086959   0.71065968
H    4.58025837   2.82691884   0.23308991
H    4.77269840   2.10674906  -3.25084877
H    4.75797844   3.40274858  -2.03655910
H    3.28727889   2.41626906  -2.33069897

