%chk=mol_5649.chk
# wB97XD/Def2SVP opt pop=full gfinput

C 6 H 13 N 1

1 2
C    1.654247   0.034865  -0.419198
C    4.467331   0.061397   0.037851
C    5.181818  -0.095582   2.790785
C    6.147430  -1.256554  -1.867219
C    6.076017   1.593285  -1.793463
C    8.337132   3.075114  -0.979067
N    9.901409   3.498639  -3.203521
H    1.194099   0.144337  -2.434458
H    0.759500   1.644364   0.524890
H    0.818705  -1.705780   0.325203
H    7.201293  -0.440268   3.068632
H    4.166185  -1.646292   3.710609
H    4.686710   1.664849   3.757985
H    5.276512  -2.183446  -3.475376
H    7.832915  -2.212189  -1.197652
H    5.082702   2.559143  -3.310441
H    9.452618   2.092626   0.457654
H    7.736501   4.892690  -0.197098
H   10.478305   1.793936  -3.891154
H   11.499210   4.434337  -2.678309

