%chk=mol_3889.chk
# wB97XD/Def2SVP opt pop=full gfinput

C 5 H 7 N 1 O 1

1 2
C    1.832297   0.009316   1.033661
C    4.522228  -0.067085   0.211215
C    5.350816   1.393390  -2.081458
O    7.989214   2.097974  -2.266632
N    9.392506  -0.164784  -2.757394
C    7.891704  -2.089489  -2.689420
C    5.256065  -1.433622  -2.181802
H    1.476575   1.717062   2.144121
H    1.405427  -1.630588   2.218727
H    0.526119   0.000567  -0.570848
H    5.805428  -0.131374   1.807240
H    3.981124   2.468285  -3.152365
H    8.484379  -4.057563  -2.990529
H    3.819968  -2.299683  -3.347272

