%chk=mol_3267.chk
# wB97XD/Def2SVP opt freq pop=full gfinput

C 5 H 10 O 2

1 2
C    0.77888972   2.25109911  -0.90880966
C    2.20807910   2.70665908  -0.67884976
O    2.96502876   1.58229947  -0.22901992
C    4.29554844   1.78533936   0.02524999
C    5.00758791   2.91837883  -0.07235997
O    6.33924770   3.11919904   0.17677994
C    7.09891701   1.98506927   0.58055979
H    0.15851994   3.07839870  -1.26420951
H    0.34656987   1.85709929   0.01673999
H    0.74598974   1.44201946  -1.64577949
H    2.21902919   3.49762869   0.08004997
H    2.62196898   3.08770871  -1.61976933
H    4.72205830   0.83957964   0.33729988
H    4.58007812   3.86524868  -0.37931988
H    8.13282681   2.30890894   0.73195976
H    7.09659719   1.21543956  -0.19823992
H    6.72821712   1.58270931   1.52884936

