%chk=mol_6003.chk
# wB97XD/Def2SVP opt freq pop=full gfinput

C 5 H 11 N 1 O 1

1 2
O    1.02820969   0.02313999   0.14554994
C    2.45026898   0.02234999   0.02949999
C    2.90286875  -1.32470942  -0.52863979
C    2.54475904  -1.46805954  -2.00766921
N    3.08604884  -0.36491987  -2.80743885
C    2.55415916   0.91440964  -2.33367920
C    2.90772891   1.17029953  -0.86837965
H    0.76491970   0.87158966   0.54105979
H    2.85440874   0.15300994   1.03926969
H    2.43263912  -2.14244914   0.03040999
H    3.98919845  -1.42326939  -0.40779984
H    2.95343900  -2.41034913  -2.38922906
H    1.45735955  -1.52600944  -2.13856936
H    4.10253859  -0.36013985  -2.72955894
H    2.97031903   1.71836936  -2.95119882
H    1.46722949   0.94403964  -2.47802901
H    3.99419856   1.29307950  -0.77508974
H    2.44140911   2.10976911  -0.54995978

