%chk=mol_0964.chk
# wB97XD/Def2SVP opt freq pop=full gfinput

C 4 H 9 N 1 O 1

1 2
C    1.00239968   0.08095998   0.12966995
C    2.49466896  -0.12571995  -0.03111999
O    3.24561858   0.93205965   0.63238978
C    4.11850834  -0.05813998   1.24390948
C    3.14339876  -1.18691957   0.88186967
N    3.81908870  -2.22160912   0.08686996
H    0.45207983  -0.76714975  -0.28920987
H    0.67944974   0.98421961  -0.39740986
H    0.71945971   0.18286994   1.18198955
H    2.78146887  -0.16964994  -1.09019959
H    5.10042810  -0.05911998   0.75890976
H    4.24010849   0.12177996   2.31572914
H    2.53549886  -1.55478942   1.71276939
H    4.38683844  -1.86379933  -0.68187976
H    3.17965889  -2.89899874  -0.32765988

