%chk=mol_5727.chk
# wB97XD/Def2SVP opt pop=full gfinput

C 6 H 13 N 1

1 2
C    1.778591   0.032919  -0.052364
C    4.642358  -0.087381   0.057013
C    5.949633   1.890142   1.786698
C    7.954594  -0.143336   2.402409
C    5.927051  -2.157822   1.737187
C    4.528369  -3.350522   3.931235
N    7.078952  -4.051441   0.079992
H    1.025781  -1.587105  -1.094038
H    1.164733   1.752986  -1.023513
H    0.931219   0.036585   1.832940
H    5.403521   0.012756  -1.878728
H    4.829535   2.472896   3.428719
H    6.659451   3.580426   0.834220
H    9.599771  -0.053687   1.142339
H    8.632836  -0.137704   4.356367
H    3.724575  -1.917222   5.190322
H    5.792767  -4.530278   5.070627
H    2.971802  -4.544206   3.269283
H    8.101256  -3.337804  -1.389497
H    5.809585  -5.270805  -0.703526

