%chk=mol_6507.chk
# wB97XD/Def2SVP opt freq pop=full gfinput

C 5 H 7 N 1 S 1

1 2
C    0.92989969  -0.16077994   0.01310000
C    2.44197917   0.00356000   0.00593000
C    2.85699892   1.44157946  -0.00015000
N    3.02884889   2.06348920   1.16722953
S    3.47987866   3.63270879   0.88461965
C    3.45834875   3.51843882  -0.82038969
C    3.09292865   2.23623919  -1.16961956
H    0.66362977  -1.22244954   0.01344000
H    0.47717983   0.30344990  -0.86957973
H    0.48552981   0.30201989   0.90070969
H    2.85587883  -0.49891981  -0.87655967
H    2.86709881  -0.50346982   0.88091964
H    3.70273876   4.35826874  -1.45424938
H    2.99814892   1.88685930  -2.18868899

