%chk=mol_1192.chk
# wB97XD/Def2SVP opt pop=full gfinput

C 6 H 15 N 1

1 2
C    2.060954   0.085453  -1.209803
C    4.902649   0.403948  -0.929481
C    5.607176   3.142747  -0.332819
C    8.474005   3.450602  -0.047961
C    9.266499   6.166044   0.616391
C   12.111632   6.306583   1.093188
N    8.580755   7.916554  -1.411777
H    1.601429  -1.881071  -1.654399
H    1.328251   1.276359  -2.733980
H    1.082794   0.594224   0.540046
H    5.829276  -0.192544  -2.684035
H    5.581779  -0.844254   0.578200
H    4.671460   3.733532   1.419638
H    4.903801   4.369349  -1.846565
H    9.410364   2.846646  -1.798377
H    9.135786   2.172505   1.446075
H    8.281215   6.753447   2.341371
H   13.193067   5.737473  -0.578974
H   12.652567   5.059496   2.654574
H   12.686695   8.229776   1.602828
H    9.487843   7.419197  -3.036998
H    9.198431   9.688550  -0.977385

