%chk=mol_6436.chk
# wB97XD/Def2SVP opt freq pop=full gfinput

C 5 H 7 N 1 S 1

1 2
C    0.92667967  -0.04285998   0.01069000
C    2.41693902   0.04443998   0.01253000
C    3.17126870   1.20416951   0.05251998
N    2.73126888   2.47857904   0.09195997
S    4.85264826   0.88135964   0.04902998
C    4.59947824  -0.80448973  -0.00509000
C    3.26104879  -1.11815953  -0.01992999
H    0.44930986   0.94132966   0.02718999
H    0.58012974  -0.59808975   0.88907969
H    0.58075976  -0.56768978  -0.88658965
H    3.39744878   3.22624874  -0.07675997
H    1.77693927   2.71081901  -0.15709995
H    5.44079781  -1.48278952  -0.02096999
H    2.89532900  -2.13702917  -0.04972998

