%chk=mol_0169.chk
# wB97XD/Def2SVP opt pop=full gfinput

C 4 H 11 N 1

1 2
C    2.203194  -0.933903  -0.158094
C    5.060157  -0.632359  -0.272158
C    5.842939   2.121520   0.112836
N    8.598405   2.329069   0.005121
C    9.407510   4.939517   0.335899
H    1.680137  -2.916452  -0.435204
H    1.279080   0.185760  -1.632780
H    1.465842  -0.326280   1.677359
H    5.734714  -1.316364  -2.109161
H    5.922817  -1.828234   1.181986
H    5.157063   2.779863   1.954128
H    4.976386   3.300728  -1.354669
H    9.227495   1.678341  -1.696294
H    8.814816   5.679269   2.174716
H    8.661466   6.160564  -1.158478
H   11.472206   5.034571   0.263673

