%chk=mol_6234.chk
# wB97XD/Def2SVP opt pop=full gfinput

C 4 H 7 N 1 O 2

1 2
O    4.845995  -0.767493  -2.920685
C    4.005105   0.061662  -0.506503
C    5.099634   2.640987   0.052478
C    3.599928   4.656474   0.402512
N    7.678354   2.970517   0.245740
C    9.540074   1.206892  -0.072736
O   11.789038   1.714171   0.162498
H    3.950983  -2.329163  -3.288482
H    4.598119  -1.308182   0.926344
H    1.933870   0.104748  -0.529652
H    1.557947   4.505976   0.269040
H    4.351794   6.520500   0.809256
H    8.358656   4.720630   0.618054
H    8.888742  -0.712767  -0.520279

