%chk=mol_0357.chk
# wB97XD/Def2SVP opt freq pop=full gfinput

C 5 H 5 N 1

1 2
C    0.99999964   0.00000000   0.00000000
C    2.44399905   0.00000000   0.00000000
C    3.63415861   0.00000000   0.00000000
C    5.07815790   0.00000000   0.00000000
C    5.56017780   1.36116946   0.00000000
N    5.94438744   2.44615912   0.00000000
H    0.60625982   1.02013969   0.01165000
H    0.60616976  -0.52014977   0.87761968
H    0.60640973  -0.49962980  -0.88875967
H    5.45631790  -0.53381979  -0.87859964
H    5.45631790  -0.53382981   0.87860972

