%chk=mol_0022.chk
# wB97XD/Def2SVP opt freq pop=full gfinput

C 3 H 3 N 1

1 2
C    0.97770965  -0.00358000  -0.00000000
C    2.31604934   0.02272999   0.00000000
C    3.05568886   1.23695946   0.00000000
N    3.66316867   2.22479916   0.00000000
H    0.44126984  -0.94699967  -0.00000000
H    0.38574988   0.90891963  -0.00000000
H    2.88228893  -0.90129966   0.00000000

