%chk=mol_1411.chk
# wB97XD/Def2SVP opt freq pop=full gfinput

C 5 H 10 N 2

1 2
C    3.46214867  -2.09468913   0.81228971
C    2.94052887  -0.80730969   0.22904992
C    1.64485943  -0.74410975  -0.12472995
N    3.79245853   0.26441991   0.00983000
C    5.11840773   0.51114982   0.28767991
C    5.72565794   1.71206939  -0.41001984
N    5.89694786  -0.13409995   1.08696961
H    4.35634851  -2.43094897   0.27588987
H    2.72865915  -2.90637898   0.74085975
H    3.69574857  -1.97101927   1.87478936
H    0.97286963  -1.58503938   0.02230999
H    1.20930958   0.14621994  -0.56672978
H    3.34473872   1.00263965  -0.52789980
H    5.24545813   2.62378883  -0.04162998
H    5.55990791   1.63128948  -1.48824942
H    6.80090714   1.77235937  -0.21899991
H    5.38405752  -0.88617969   1.54133940

