%chk=mol_5586.chk
# wB97XD/Def2SVP opt pop=full gfinput

C 4 H 5 N 1 O 2

1 2
N    1.854936   0.067879  -0.015458
C    4.385355  -0.042481  -0.002551
C    6.022954   1.972062   0.004781
O    8.453860   1.131662   0.018047
C    8.339248  -1.429105   0.018425
O   10.565232  -2.557385   0.030462
C    5.873004  -2.252705   0.005820
H    0.889513   1.726888  -0.004630
H    0.741302  -1.493791  -0.003194
H    5.795053   3.999945   0.002362
H   10.234719  -4.360656   0.028648
H    5.239511  -4.190298   0.002986

