%chk=mol_6648.chk
# wB97XD/Def2SVP opt pop=full gfinput

C 5 H 8 N 2

1 2
C    1.938557  -0.043369  -0.012642
N    4.661009   0.085435   0.000775
C    6.114606   2.211962   0.008107
C    8.579092   1.389251   0.020088
C    8.417861  -1.278192   0.018954
C   10.526890  -3.121147   0.028913
N    6.013146  -2.065395   0.006520
H    1.158648   1.868693   0.001852
H    1.325945  -1.066977   1.673296
H    1.341876  -1.035457  -1.722939
H    5.302798   4.084794   0.004252
H   10.262573   2.544875   0.028516
H    9.836837  -5.072006   0.043861
H   11.711804  -2.848800   1.702851
H   11.706778  -2.872195  -1.652169

