%chk=mol_4327.chk
# wB97XD/Def2SVP opt freq pop=full gfinput

C 6 H 11 N 1

1 2
C   -1.72828937   0.56762975   0.28779989
N   -1.58441937  -0.82396972  -0.32125986
C   -0.20910993  -0.75649971   0.21612993
C    1.03352964  -1.14819956  -0.53600985
C    2.00699925  -0.04076999  -0.06201998
C    1.10627949   1.08371961   0.51256979
C   -0.23930991   0.76167971  -0.10376997
H   -2.44612908   1.20708954  -0.23284991
H   -1.94832933   0.57175982   1.36221957
H   -1.62861943  -0.82425970  -1.34116960
H   -0.15765995  -1.03408957   1.28157949
H    1.39521956  -2.14454937  -0.27109993
H    0.90222967  -1.10274959  -1.62301946
H    2.69045901  -0.40863985   0.71103972
H    2.61133909   0.31675988  -0.90244961
H    1.07572961   1.03719962   1.60702944
H    1.47172940   2.07358909   0.22312991
H   -0.18668993   1.03424966  -1.17397952

