%chk=mol_1560.chk
# wB97XD/Def2SVP opt pop=full gfinput

C 5 H 10 N 2

1 2
C    3.960923  -0.208399  -2.534142
C    5.874724   0.226729  -0.439248
N    6.663817   2.877259  -0.515857
C    8.247332   3.452530   1.245424
N    9.383757   5.756144   1.738265
C   10.030081   7.320742  -0.469578
C    7.874659   8.029900   1.196140
H    3.344683  -2.181632  -2.551811
H    4.775716   0.236707  -4.382464
H    2.296584   0.991331  -2.272093
H    7.501419  -1.023495  -0.729831
H    5.004221  -0.228392   1.385302
H    8.894544   2.034574   2.636584
H    9.646655   6.475241  -2.290821
H   11.808256   8.299167  -0.252770
H    8.141469   9.505984   2.580478
H    5.964391   7.688351   0.553633

