%chk=mol_4666.chk
# wB97XD/Def2SVP opt pop=full gfinput

C 5 H 11 N 1 O 1

1 2
C    1.180531  -0.085453  -0.008523
C    3.968236  -0.496242  -0.637877
N    4.249465  -1.289606  -3.272193
C    5.529528   1.840593  -0.092200
C    5.169421   4.151388  -1.692930
C    6.602098   2.173072   2.544762
O    8.137350   1.329063   0.480671
H    0.956712   0.511417   1.960270
H    0.098360  -1.831088  -0.268908
H    0.326318   1.373094  -1.202678
H    4.659290  -2.054246   0.543731
H    3.416077  -0.007748  -4.439496
H    3.311291  -2.948181  -3.544049
H    6.407097   5.698620  -1.087878
H    3.220830   4.835148  -1.569701
H    5.603208   3.762615  -3.678220
H    6.137812   0.802945   3.991914
H    6.933273   4.063289   3.254619

