%chk=mol_4723.chk
# wB97XD/Def2SVP opt pop=full gfinput

C 4 H 10 N 2 O 1

1 2
C    3.397841  -0.359804   0.831517
C    6.141100   0.052761   0.096886
N    6.749591   2.728349   0.456860
C    9.056607   3.255280  -0.127349
N   10.098961   5.631252   0.055993
C   12.306010   6.382871  -1.376269
O    8.259180   7.542124   0.168431
H    2.875180  -2.347134   0.593979
H    2.138036   0.788885  -0.341927
H    3.074282   0.166523   2.806716
H    6.407287  -0.496696  -1.882942
H    7.351677  -1.136803   1.285165
H   10.413544   1.827157  -0.819423
H   13.832058   5.007699  -1.137483
H   12.999218   8.218494  -0.721497
H   11.854535   6.527889  -3.389413
H    6.771078   6.630369   0.808708

