%chk=mol_4313.chk
# wB97XD/Def2SVP opt pop=full gfinput

C 5 H 9 N 1 O 1

1 2
C    1.417956   0.246458   0.016157
C    4.194776  -0.038872   0.454101
C    5.927844   1.658896  -0.288599
C    8.712847   1.387059   0.169697
C   10.037696   1.238205  -2.344016
N   11.534076   3.023562  -3.090194
O   12.513974   2.383871  -5.460590
H    0.715035  -1.348395  -1.095342
H    0.960453   1.991299  -0.994525
H    0.420502   0.267850   1.827781
H    4.781461  -1.738869   1.449552
H    5.329991   3.368248  -1.268516
H    9.152832  -0.334500   1.227358
H    9.406924   3.014056   1.242060
H    9.687416  -0.461282  -3.506217
H   13.609826   3.818419  -5.836929

