%chk=mol_6314.chk
# wB97XD/Def2SVP opt freq pop=full gfinput

C 6 H 9 N 1

1 2
C    0.92505968  -0.02966999   0.17755993
C    2.43025923   0.05625998  -0.02318999
C    3.15849876   1.10848963   0.84835964
C    4.15797853  -0.01253999   1.16736960
N    3.14237881  -0.99530965   0.74305975
C    2.81143880   0.02359999  -1.42464948
C    3.12711883  -0.00432000  -2.58404899
H    0.65903974  -0.06383997   1.24015963
H    0.50668979  -0.92615962  -0.29486990
H    0.42300984   0.84297973  -0.25555989
H    2.59186912   1.45377946   1.72184932
H    3.57409883   1.98064923   0.33502987
H    5.05655813  -0.00586000   0.53956980
H    4.45962858  -0.09063997   2.21546912
H    3.50448871  -1.75856936   0.17400993
H    3.40522885  -0.02929999  -3.61259866

