%chk=mol_5223.chk
# wB97XD/Def2SVP opt freq pop=full gfinput

C 4 H 8 N 2 O 1

1 2
C    3.16048884   0.13385995   1.57846940
N    2.47560906   0.39997983   0.31785989
N    2.79554892   1.62963939  -0.26241991
C    2.36922908   2.93340898   0.26283988
C    3.64714861   3.51492882  -0.37493986
C    4.07934856   2.04458928  -0.52457982
O    5.12386799   1.46456945  -0.70996970
H    2.84259892  -0.84124964   1.96100926
H    2.91958904   0.88380969   2.33820915
H    4.24635887   0.09059997   1.45053947
H    1.46553946   0.35154986   0.45212984
H    2.32856917   2.98521876   1.35473955
H    1.43037951   3.28579855  -0.17146994
H    3.50897861   4.02985859  -1.32941949
H    4.27446842   4.10668850   0.29460990

