%chk=mol_3393.chk
# wB97XD/Def2SVP opt freq pop=full gfinput

C 6 H 10 O 1

1 2
C    2.28105927   0.16901994   2.41966915
O    3.37323880   1.01254964   2.08074927
C    3.12582898   1.86342931   0.94895965
C    2.11415935   2.95444894   1.30512941
C    4.48269796   2.46272922   0.54279983
C    4.42529821   3.20766878  -0.72453976
C    4.38647842   3.82620859  -1.75446939
H    2.63109899  -0.56015980   3.15568876
H    1.91344929  -0.37194988   1.54278946
H    1.47410941   0.74742973   2.87704897
H    2.73966908   1.25414956   0.12140995
H    2.43400908   3.50671864   2.19524908
H    1.13516963   2.52232909   1.53481936
H    1.97157919   3.66186857   0.48294982
H    5.21789789   1.65288937   0.45091984
H    4.85919809   3.10921884   1.34532952
H    4.35602856   4.37956858  -2.66400909

