%chk=mol_6256.chk
# wB97XD/Def2SVP opt freq pop=full gfinput

C 4 H 9 N 1 O 2

1 2
O    2.88677883  -0.82110971  -1.18299961
C    2.33440900  -0.17975993  -0.03262999
C    2.77284908   1.28940952  -0.00242000
N    4.24050856   1.37215948   0.11386996
C    4.72046852   2.74693894  -0.07213997
C    4.34957838   3.59960866   1.12299955
O    3.75165868   4.66824865   1.03731966
H    2.61285901  -1.75350940  -1.13924956
H    2.67472911  -0.71055973   0.86311966
H    1.24332952  -0.24633990  -0.09105997
H    2.29218912   1.79102933   0.84361970
H    2.44859910   1.77003932  -0.93297964
H    4.61836815   0.78457969  -0.63659978
H    4.33296824   3.19678879  -0.99150962
H    5.81339788   2.73967886  -0.13189995
H    4.69140863   3.22030878   2.10206914

