%chk=mol_7083.chk
# wB97XD/Def2SVP opt pop=full gfinput

C 6 H 13 N 1

1 2
C    1.051822   1.319350  -1.460985
C    3.872635   1.376344  -1.575106
C    5.344863   2.358416   0.241431
C    8.182363   2.416865   0.119185
C    9.262361   5.099634   0.232984
C    8.533380   6.699004  -2.061257
N    9.735340   9.179061  -1.913801
H    0.264051   2.311494  -3.095012
H    0.320082   2.218028   0.251598
H    0.384162  -0.636611  -1.502521
H    4.728529   0.559472  -3.256943
H    4.484358   3.158186   1.930128
H    8.870469   1.465917  -1.589014
H    8.913423   1.337321   1.730006
H   11.329437   4.961117   0.345612
H    8.632760   6.033442   1.975312
H    6.482649   6.954457  -2.158162
H    9.138697   5.761435  -3.803868
H    9.130609  10.093216  -0.329738
H    9.154646  10.251254  -3.404871

