%chk=mol_0705.chk
# wB97XD/Def2SVP opt freq pop=full gfinput

C 5 H 6 O 1

1 2
C    0.99999964   0.00000000   0.00000000
C    2.44399905   0.00000000   0.00000000
C    3.63415861   0.00000000   0.00000000
C    5.08135796   0.02166999   0.00093000
C    5.78049803  -1.30537951  -0.00596000
O    5.67299795   1.09343958   0.00451000
H    0.60591978   1.02084970   0.01167999
H    0.60595977  -0.52056980   0.87823963
H    0.60595977  -0.50032979  -0.88992965
H    5.06484795  -2.13227916   0.00989000
H    6.41899729  -1.37888956   0.87821966
H    6.38888788  -1.38563955  -0.91046965

