%chk=mol_4146.chk
# wB97XD/Def2SVP opt pop=full gfinput

C 5 H 7 N 1 O 1

1 2
C    1.764475  -0.067331  -0.004082
C    4.559115   0.122908  -0.005688
C    6.146448   2.173695  -0.002683
O    5.318237   4.565748   0.003213
C    8.667664   1.325246  -0.006898
C    8.569379  -1.276775  -0.012642
N    6.075545  -1.990014  -0.011905
H    0.882049   1.803082   0.020674
H    1.108551  -1.103789   1.661844
H    1.104620  -1.061573  -1.694026
H    6.749610   5.714664   0.004195
H   10.370496   2.451750  -0.005953
H   10.054344  -2.683317  -0.017329
H    5.444830  -3.794986  -0.015477

