%chk=mol_6865.chk
# wB97XD/Def2SVP opt freq pop=full gfinput

C 6 H 11 N 1

1 2
C    0.99767965   0.12009995  -0.08292997
C    2.50608897  -0.03352999   0.13011995
N    3.23357868   1.18293953  -0.26566991
C    3.51612854   1.22393966  -1.70269930
C    4.35465813   0.02264999  -2.16354918
C    3.86685848  -1.27075958  -1.58008945
C    3.01291871  -1.28284943  -0.54644978
H    0.61429977   0.99746966   0.44972983
H    0.46073982  -0.75521970   0.30004987
H    0.74083972   0.22870992  -1.14229953
H    2.67523909  -0.15674995   1.20710957
H    2.69419885   2.00423932  -0.00076000
H    4.06237841   2.14570928  -1.93214929
H    2.57899904   1.26875961  -2.27106905
H    5.40269804   0.16188994  -1.87234926
H    4.32369804  -0.03607999  -3.25727892
H    4.22874832  -2.19944930  -2.01012921
H    2.67229915  -2.23404908  -0.14535995

