%chk=mol_4377.chk
# wB97XD/Def2SVP opt freq pop=full gfinput

C 5 H 11 N 1 O 1

1 2
C    1.06343961  -0.28221989  -0.09680996
C    2.57346892  -0.11918996  -0.01974999
C    2.97456908   1.35667944   0.02813999
C    4.49067831   1.55174947   0.02524999
N    5.12268782   1.02945960   1.21835959
C    5.20288801   1.75720930   2.37711930
O    4.79792786   2.89848876   2.53632903
H    0.79762971  -1.34383941  -0.12489995
H    0.66305977   0.19137993  -0.99923962
H    0.57460976   0.16767994   0.77351969
H    3.03070879  -0.60160977  -0.89111966
H    2.94148874  -0.64026976   0.87100965
H    2.53753901   1.82717931   0.91743964
H    2.55710912   1.87184930  -0.84573972
H    4.71941805   2.62077904  -0.05185998
H    4.94490814   1.04702961  -0.83395970
H    5.44209814   0.06966997   1.22424960
H    5.68977785   1.18575966   3.18445897

