%chk=mol_1579.chk
# wB97XD/Def2SVP opt freq pop=full gfinput

C 5 H 8 N 2

1 2
C    1.52490950   0.33866987   0.45478982
C    2.82099891   0.01024000  -0.26595989
N    3.84185863   0.97496963   0.08333997
C    5.11544800   0.91125965  -0.38261986
N    5.78028774  -0.07385997  -0.85371965
C    5.89515781   2.11992931  -0.37615988
C    6.53851748   3.13466883  -0.37150988
H    0.74880975  -0.38762987   0.19418992
H    1.16446948   1.33627951   0.18159994
H    1.66346931   0.31876990   1.54095936
H    2.65244889   0.02472999  -1.34803951
H    3.14104891  -0.99887961   0.01524999
H    3.50068879   1.91944933   0.23435992
H    5.20497847  -0.91471970  -0.82120967
H    7.12199736   4.02490854  -0.37482986

