%chk=mol_3434.chk
# wB97XD/Def2SVP opt pop=full gfinput

C 5 H 12 O 2

1 2
C    3.853908  -0.988440   2.110843
O    6.255674   0.207794   1.975576
C    6.207637   2.603854   0.687823
C    4.895071   4.620399   2.277271
C    8.971003   3.335045   0.070279
C   10.671700   3.589705   2.381943
O   10.029608   1.418447  -1.521513
H    4.108038  -2.841581   2.991399
H    3.065533  -1.263244   0.220493
H    2.547596   0.101781   3.283399
H    5.202246   2.354107  -1.109439
H    5.576865   4.602541   4.231324
H    2.856453   4.274844   2.361232
H    5.173541   6.507555   1.478106
H    9.001786   5.105681  -1.001441
H   10.726444   1.834981   3.478929
H   10.057519   5.127394   3.618485
H   12.619440   3.971222   1.793652
H    9.665005  -0.177842  -0.665448

