%chk=mol_3965.chk
# wB97XD/Def2SVP opt freq pop=full gfinput

C 5 H 8 N 2

1 2
C   -1.08007967   0.03687999  -1.00937963
C   -0.62260979   1.05410957   0.07661997
C   -1.05701959  -0.03647999   1.10199964
C   -0.55730981  -1.03707957   0.00596000
C    0.99835962  -1.10239959  -0.03764999
N    1.65700948   0.01505999  -0.02661999
N    0.85948968   1.12190962   0.09661996
H   -2.16303897   0.00758000  -1.18293953
H   -0.57568979   0.08526997  -1.97879934
H   -1.13807964   2.01500916   0.12710994
H   -0.53061980  -0.05307998   2.06075931
H   -2.13534927  -0.07707997   1.29706943
H   -1.05120957  -2.01033926  -0.02135999
H    1.49566948  -2.08111930  -0.10542996
H    1.29426944   1.94887924  -0.31742990

