%chk=mol_1695.chk
# wB97XD/Def2SVP opt pop=full gfinput

C 5 H 12 N 2

1 2
C    3.250291  -1.018468  -2.092078
N    4.342081   0.000567   0.224310
C    5.925822   2.247980  -0.259800
C    8.278002   1.751360  -1.824587
C    4.270611   4.593735  -0.862849
N    5.712264   6.044724   1.063557
C    6.369965   3.613591   2.307167
H    1.912214  -2.518192  -1.605322
H    4.693419  -1.849947  -3.318359
H    2.203610   0.413359  -3.154917
H    5.254686  -1.405616   1.168361
H    9.493134   3.426414  -1.919055
H    7.802717   1.245084  -3.773689
H    9.405771   0.215334  -1.014462
H    2.256012   4.440138  -0.395746
H    4.432466   5.340706  -2.785419
H    7.243717   6.955893   0.330060
H    8.296144   3.536320   3.059221
H    5.062954   3.129519   3.843476

