%chk=mol_0615.chk
# wB97XD/Def2SVP opt freq pop=full gfinput

C 6 H 8

1 2
C    0.99999964   0.00000000   0.00000000
C    2.44399905   0.00000000   0.00000000
C    3.63415861   0.00000000   0.00000000
C    5.06677771  -0.01798999   0.04079999
C    5.81260824  -0.74124968  -1.04832959
C    5.83689785   0.75898975  -0.99397963
H    0.60595977   1.02085960   0.01162999
H    0.60591978  -0.52053982   0.87823963
H    0.60600978  -0.50031978  -0.88994968
H    5.49982786  -0.06159997   1.03648961
H    5.24699783  -1.21120954  -1.84564924
H    6.71369743  -1.27731955  -0.77139968
H    6.75425720   1.24179947  -0.67997974
H    5.28718805   1.30302954  -1.75251937

