%chk=mol_4782.chk
# wB97XD/Def2SVP opt freq pop=full gfinput

C 4 H 10 N 2 O 1

1 2
C    1.12433958  -0.15099995  -0.52589977
C    2.55343890  -0.13360995  -0.00715000
N    3.03329873   1.24495959   0.10823996
N    4.30898809   1.38364947   0.53878981
C    4.72124815   2.61304903   0.54314977
C    6.12203789   2.94236898   1.01340961
O    6.91022730   1.79193926   1.24883950
H    0.77008969  -1.18227959  -0.61830974
H    1.05636966   0.31936988  -1.51202953
H    0.44890985   0.37766984   0.15444994
H    3.19603896  -0.69458973  -0.69529974
H    2.59375906  -0.62701976   0.97102964
H    2.37523913   1.77867925   0.68148977
H    4.08758831   3.46289849   0.23231991
H    6.04831791   3.52313876   1.93746936
H    6.60828781   3.56029868   0.25378990
H    6.29657745   1.03183961   1.17901957

