%chk=mol_0430.chk
# wB97XD/Def2SVP opt freq pop=full gfinput

C 5 H 9 N 1

1 2
C    0.95136964  -0.01655999   0.07355997
C    2.47483897  -0.04113999  -0.06060998
N    2.83808899  -0.80234969  -1.26377952
C    3.03155875   1.39792943  -0.09440996
C    4.50050831   1.43920946   0.01251999
C    5.69757795   1.47869945   0.10007996
H    0.65236974   0.50494981   0.98925960
H    0.54392982  -1.03239965   0.12533996
H    0.48148981   0.49461982  -0.77424973
H    2.88991880  -0.56767982   0.80756968
H    2.47075915  -0.34114987  -2.09468913
H    2.40971923  -1.72614932  -1.23168957
H    2.60818911   1.97050917   0.74044973
H    2.71379900   1.90591931  -1.01356959
H    6.76026726   1.50523949   0.17223993

