%chk=mol_3222.chk
# wB97XD/Def2SVP opt pop=full gfinput

C 6 H 12 O 1

1 2
C    3.805341   7.810900  -0.931049
C    4.916595   5.203380  -0.523265
O    7.519466   5.265344  -1.212467
C    8.680532   2.839843  -0.944164
C   11.470714   2.999506  -1.687620
C   11.825377   3.605957  -4.443502
C   13.036900   2.122786  -6.094159
H    1.838533   7.879912  -0.301203
H    3.878644   8.325755  -2.933592
H    4.890951   9.241309   0.098625
H    3.910542   3.821517  -1.690587
H    4.742343   4.666792   1.467637
H    7.691129   1.453672  -2.124487
H    8.542526   2.248698   1.035513
H   12.395186   1.205853  -1.217475
H   12.398720   4.487797  -0.582943
H   11.040328   5.396075  -5.086935
H   13.858968   0.328699  -5.539335
H   13.234205   2.690214  -8.057187

