%chk=mol_2163.chk
# wB97XD/Def2SVP opt pop=full gfinput

C 5 H 6 O 2

1 2
C    1.556322  -0.092408   0.052950
C    4.248482   0.771481  -0.274558
C    2.120840   2.603230  -0.561268
O    1.758485   4.486569   1.396602
C    0.950608   6.492154  -0.064156
C    0.823996   5.961557  -2.507421
O    1.526124   3.513057  -3.080121
H    0.904801  -0.519486   1.944150
H    0.730322  -1.250507  -1.417351
H    5.245351   0.199971  -1.967092
H    5.419678   0.930936   1.394486
H    0.529048   8.212277   0.926230
H    0.269513   7.124891  -4.074684

