%chk=mol_7078.chk
# wB97XD/Def2SVP opt pop=full gfinput

C 6 H 3 N 1

1 2
C    1.889726   0.000000   0.000000
C    4.138803   0.000000   0.000000
C    6.867567   0.000000   0.000000
C    7.812279  -1.336754  -2.183295
C    8.590940  -2.438521  -3.982787
C    7.778453   2.572238   0.000000
N    8.504504   4.622572   0.000000
H   -0.124061   0.007105  -0.009108
H    7.541235  -0.950419   1.714265
H    9.284867  -3.417834  -5.602641

