%chk=mol_0037.chk
# wB97XD/Def2SVP opt pop=full gfinput

C 4 H 8

1 2
C    1.934343   0.024434  -0.142410
C    4.744800  -0.086474   0.004479
C    6.229085  -1.387702  -2.042737
C    6.341184   1.441748  -1.785999
H    1.212940   1.487498   1.130699
H    1.118831  -1.786698   0.433503
H    1.268082   0.452873  -2.053754
H    5.398154  -0.301392   1.933776
H    5.222069  -2.167818  -3.645168
H    7.880555  -2.466924  -1.486818
H    8.066919   2.272963  -1.060004
H    5.411533   2.568535  -3.223060

