%chk=mol_3905.chk
# wB97XD/Def2SVP opt freq pop=full gfinput

C 5 H 7 N 1 O 1

1 2
C    1.02784967   0.07633997   0.03876999
C    2.50594902  -0.02896999  -0.03021999
C    3.27776861  -1.12082958  -0.03996998
C    4.73713827  -0.75471973  -0.12247995
C    4.63668823   0.76193970  -0.16043994
O    5.55894804   1.55584943  -0.23069991
N    3.29162884   1.07992959  -0.10012996
H    0.55792975  -0.91242963   0.04969998
H    0.64041978   0.62315977  -0.82679969
H    0.72281975   0.60537976   0.94721961
H    2.92059875  -2.13923931   0.00531000
H    5.28379774  -1.07812965   0.76591969
H    5.19436836  -1.12966955  -1.04059958
H    2.96558905   2.03607917  -0.11135996

