%chk=mol_4595.chk
# wB97XD/Def2SVP opt pop=full gfinput

C 4 H 10 N 2 O 1

1 2
C    6.361706  -3.640860  -0.143695
C    5.936953  -1.217343   1.338285
C    7.186628   1.114088   0.169149
O    6.369057   3.300633   1.537349
C   10.092688   1.005542   0.285840
N   11.325752   2.335078   2.124336
N   11.433996  -0.261935  -1.316081
H    5.211279  -5.166700   0.649197
H    8.336036  -4.245383  -0.051287
H    5.834000  -3.406269  -2.129230
H    6.602231  -1.483246   3.284136
H    3.896653  -0.873507   1.483889
H    6.609563   1.354423  -1.803177
H    6.636624   2.922575   3.319587
H   10.543821   4.057355   2.454509
H   13.196411   2.468228   1.710542
H   10.297363  -1.142585  -2.616024

