%chk=mol_7017.chk
# wB97XD/Def2SVP opt pop=full gfinput

C 6 H 13 N 1

1 2
C    1.574633  -0.128898  -0.049643
C    4.385412  -0.430272  -0.650633
C    4.761788  -1.169155  -3.419138
C    5.886705   1.936043   0.053593
C    5.283599   4.337262  -1.363437
C    6.758586   2.186961   2.774005
N    8.542696   1.526426   0.786882
H    1.295974   0.423733   1.925215
H    0.567541  -1.910060  -0.361618
H    0.685744   1.311262  -1.240000
H    5.078866  -2.017831   0.495108
H    3.958825   0.239050  -4.704983
H    3.843760  -2.980325  -3.820611
H    6.772986  -1.361415  -3.867306
H    6.424388   5.932738  -0.696572
H    3.299556   4.862001  -1.114334
H    5.657840   4.118412  -3.385161
H    6.306356   0.694342   4.101121
H    6.952681   4.047774   3.604350
H    9.641005   3.038264   0.303320

