%chk=mol_5932.chk
# wB97XD/Def2SVP opt pop=full gfinput

C 5 H 7 N 1 O 1

1 2
O    1.954544   0.024982   0.330154
C    4.214108   0.019521   0.073775
C    6.517703  -1.924365   0.006179
C    7.989743  -1.543131   2.463485
C    8.041012   1.369787   2.540151
C    6.548449   1.929864   0.130372
N    7.555371   0.054915  -1.793615
H    6.195977  -3.796895  -0.775959
H    6.995634  -2.332357   4.096643
H    9.894814  -2.343204   2.376123
H    9.974447   2.100525   2.448991
H    7.113855   2.112506   4.232439
H    6.254143   3.853133  -0.530106
H    9.473291   0.047489  -1.984723

