%chk=mol_2420.chk
# wB97XD/Def2SVP opt freq pop=full gfinput

C 5 H 8 O 2

1 2
C    0.98693961  -0.06357998   0.02487999
C    2.47938895   0.00377000   0.08640996
C    3.17166877   1.14072955  -0.07108998
C    4.65889788   1.17130959   0.03997998
O    5.15306807  -0.03196999   0.61718976
C    4.51093817  -1.16038954   0.03465999
O    3.10397887  -1.21122956   0.29128990
H    0.65733975  -1.03998959  -0.34516987
H    0.57887977   0.69686973  -0.64859980
H    0.56037980   0.08641996   1.02191961
H    2.66171908   2.08067918  -0.25612989
H    5.11625814   1.32115960  -0.94412965
H    4.96896839   1.99747920   0.68704975
H    4.95572805  -2.05997920   0.47099984
H    4.69642830  -1.19466960  -1.04723954

