%chk=mol_5594.chk
# wB97XD/Def2SVP opt freq pop=full gfinput

C 4 H 4 N 2 O 1

1 2
N    1.09411955  -0.08062997   0.29930988
C    2.34430909  -0.08216997   0.00740000
N    3.20985889  -1.11196959  -0.19491993
C    4.45976830  -0.64511973  -0.50239980
C    4.55416870   0.69617975  -0.52731979
C    3.18849874   1.18252957  -0.19604993
O    2.79497910   2.32163906  -0.10201997
H    0.78475970   0.90134966   0.36927986
H    2.94879889  -2.08557916  -0.15063995
H    5.25483799  -1.35327959  -0.69748974
H    5.39570808   1.32893956  -0.73539972

