%chk=mol_0511.chk
# wB97XD/Def2SVP opt freq pop=full gfinput

C 4 H 6 N 2

1 2
C    1.13636959  -0.03925999   0.15620995
N    2.41826916  -0.04463998   0.31471989
N    3.00168872   1.13232958  -0.02534999
C    4.46623802   1.15369952   0.00814000
C    4.95750856   2.48276901  -0.38184988
C    5.36227798   3.56849861  -0.69931978
H    0.55539978  -0.94204962   0.40170985
H    0.56952977   0.82835966  -0.22483991
H    2.66378903   1.90121925   0.55823976
H    4.86232805   0.39758986  -0.67883974
H    4.81965828   0.90867960   1.01620960
H    5.72176790   4.52992868  -0.98582959

