%chk=mol_5340.chk
# wB97XD/Def2SVP opt freq pop=full gfinput

C 5 H 5 N 1 O 1

1 2
C    1.10925961  -0.13283995  -0.57067978
O    2.40324903  -0.01320999   0.00540000
C    2.89400887   1.33854949   0.00000000
C    2.39407921   2.04592919   1.15534949
C    1.98203921   2.62895894   2.10759926
C    4.33800840   1.33854949   0.00000000
N    5.48901796   1.33854949   0.00000000
H    0.80476969  -1.18142962  -0.51232982
H    1.13063955   0.16245994  -1.62418938
H    0.37868986   0.47067982  -0.02416999
H    2.55574894   1.83544922  -0.91829962
H    1.61966944   3.14534879   2.96722889

