%chk=mol_5630.chk
# wB97XD/Def2SVP opt freq pop=full gfinput

C 5 H 11 N 1 O 1

1 2
N    2.15909910  -0.42558986  -1.38111949
C    2.36886930   0.03766999  -0.01447999
C    3.20246887   1.30991948  -0.01566999
C    2.52450919   2.60233903  -0.53907979
C    3.20782876   3.36918879   0.61425978
O    4.43699837   4.05133820   0.29619992
C    3.34313869   2.02114916   1.35380948
H    1.58320940  -1.26681948  -1.36660945
H    3.04993892  -0.70478970  -1.79016936
H    2.87670875  -0.74518973   0.55941981
H    1.39543939   0.21203992   0.45619985
H    4.18656874   1.14437950  -0.47946984
H    1.43027949   2.60824919  -0.47470984
H    2.81850886   2.90230894  -1.54895937
H    2.53483915   4.06894875   1.12182963
H    4.96333838   3.41807866  -0.22142993
H    4.29498863   1.85289931   1.86572933
H    2.52649903   1.82949924   2.05944920

