%chk=mol_3069.chk
# wB97XD/Def2SVP opt freq pop=full gfinput

C 6 H 12 O 1

1 2
C    1.47755945  -0.27125990   0.33972988
C    2.53391910   0.42052984  -0.52565980
C    2.84522891  -0.42989984  -1.77112925
O    3.95609856   0.09480996  -2.49311924
C    2.12085915   1.85175931  -0.86926967
C    0.86782968   2.06273913  -1.67651939
C    2.85667896   2.90035892  -0.46022981
H    1.23185956   0.33182988   1.22071958
H    1.84682930  -1.24025953   0.69344980
H    0.55218983  -0.45515984  -0.21673992
H    3.45826888   0.46735981   0.06729997
H    1.98965931  -0.49905983  -2.45064902
H    3.11017895  -1.45035946  -1.47408950
H    3.77014852   1.03579962  -2.66050887
H   -0.00532000   1.66530931  -1.15088952
H    0.94583964   1.57177937  -2.65092897
H    0.67795974   3.12539864  -1.86439931
H    3.76277876   2.76897907   0.12478995
H    2.57411909   3.92316842  -0.69267970

