%chk=mol_6049.chk
# wB97XD/Def2SVP opt freq pop=full gfinput

C 7 H 16

1 2
C    2.85197878  -0.88378966  -1.08095968
C    2.46738911  -0.05342998   0.13501996
C    3.09341884   1.35919952   0.15554994
C    2.50804901   2.13906908   1.34151947
C    4.64944839   1.35942948   0.12887995
C    5.22027826   2.77824903   0.01701999
C    5.29200792   0.64270973   1.31949949
H    2.28610921  -1.82127941  -1.08749950
H    3.91448855  -1.14319956  -1.07459962
H    2.62836885  -0.34828988  -2.00917912
H    2.72578907  -0.60374981   1.04667962
H    1.37435949   0.04550998   0.13879995
H    2.75580883   1.87217927  -0.75623971
H    2.77855897   1.68394935   2.29919910
H    1.41383946   2.15944910   1.28377962
H    2.84454894   3.17965889   1.34618950
H    4.96884823   0.83384967  -0.77950966
H    5.07294798   3.35268855   0.93699968
H    4.75421810   3.32385874  -0.81004971
H    6.29819775   2.74190903  -0.17627993
H    5.03910828   1.12434959   2.26910901
H    6.38393736   0.65150970   1.22723961
H    4.98280811  -0.40515986   1.37211955

