%chk=mol_4833.chk
# wB97XD/Def2SVP opt freq pop=full gfinput

C 5 H 5 N 1 O 1

1 2
C    3.29485893  -1.32770944   0.38776985
C    2.53668904  -0.04116999   0.19381993
O    1.30756950  -0.01263000   0.17879993
C    3.27361894   1.23643959   0.01412999
C    4.60921812   1.34347951   0.00888000
C    5.24905777   2.59925914  -0.16837995
N    5.77705765   3.62136865  -0.31256989
H    3.90533853  -1.27272952   1.29279959
H    3.91635847  -1.53437948  -0.48732984
H    2.58375907  -2.15134907   0.50460982
H    2.63232899   2.10491920  -0.11691995
H    5.26224804   0.48908982   0.13781995

