%chk=mol_5857.chk
# wB97XD/Def2SVP opt pop=full gfinput

C 5 H 3 N 1 O 1

1 2
N    1.888573  -0.037133   0.000000
C    4.454066  -0.185061   0.000000
O    5.593684  -2.192668   0.000000
C    5.793919   2.180083   0.000000
C    6.919138   4.149877   0.000000
C    8.360999   6.660472   0.000000
C    9.496649   8.623520   0.000000
H    0.960510   1.629038   0.000000
H    0.898584  -1.669271  -0.000000
H   10.513019  10.360197   0.000000

