%chk=mol_6946.chk
# wB97XD/Def2SVP opt freq pop=full gfinput

C 6 H 13 N 1

1 2
C    2.28362918  -1.19336951  -0.74193972
C    1.90606940   0.12577996  -0.08213997
C    3.11165881   0.96511966   0.29982987
C    3.90825844   0.45130983   1.47263944
N    3.86073852   1.63909936  -0.77263969
C    3.00809884   2.47112894   0.06478997
C    3.63556862   3.47799850   0.96623963
H    1.38162947  -1.73893940  -1.03617954
H    2.85393906  -1.83268929  -0.06229998
H    2.88948894  -1.02851963  -1.63793933
H    1.30788946  -0.07387997   0.81558973
H    1.25376952   0.67998976  -0.76935971
H    4.82854795   1.01994967   1.64091945
H    4.20534849  -0.59069979   1.31886947
H    3.30725861   0.50303984   2.38653922
H    3.42995882   1.47341943  -1.68340933
H    2.10526919   2.86073875  -0.39275986
H    4.67616796   3.24320865   1.21256959
H    3.06842899   3.55260873   1.89929926
H    3.62678885   4.46332836   0.48788983

