%chk=mol_5835.chk
# wB97XD/Def2SVP opt freq pop=full gfinput

C 4 H 8 N 2 O 1

1 2
N   -0.32943988   0.86202967  -0.88930970
C    0.57937974   1.25744963   0.05137998
N    0.29007989   2.17481923   0.91510963
C    1.96822929   0.61462975   0.07569997
O    1.92449927  -0.61185980  -0.65399975
C    3.08028889  -1.33797944  -0.71235973
C    4.26968813  -1.07546961  -0.16060993
H   -0.09941996  -0.03224999  -1.32109952
H   -1.30384946   0.93168968  -0.62673974
H   -0.65418977   2.52169895   0.73107976
H    2.24288917   0.43522984   1.12158966
H    2.66854882   1.31623948  -0.39171985
H    2.91331887  -2.23152900  -1.30555952
H    4.46570826  -0.19426994   0.43869984
H    5.09656811  -1.76491928  -0.30151990

