%chk=mol_6550.chk
# wB97XD/Def2SVP opt freq pop=full gfinput

C 4 H 10 O 2 S 1

1 2
C    1.19397950  -0.29234990  -0.01598999
C    2.71195889  -0.23859991   0.02620999
C    3.22276878   1.18205953  -0.17470995
S    5.00720787   1.25118947  -0.11591996
C    5.34557819   2.96461868  -0.43686986
O    5.42560816   0.96944964   1.24358952
O    5.52711773   0.48845983  -1.23502958
H    0.84727967  -1.32170951   0.11748996
H    0.81494969   0.07198998  -0.97603965
H    0.75788969   0.31908989   0.78045970
H    3.11813879  -0.89635968  -0.75077975
H    3.06220889  -0.63198978   0.98737961
H    2.84735894   1.84729922   0.60880977
H    2.91609907   1.56987941  -1.15163958
H    4.94710827   3.22453856  -1.41916943
H    6.42779779   3.10615873  -0.42348984
H    4.87893820   3.56884861   0.34308988

