%chk=mol_6984.chk
# wB97XD/Def2SVP opt freq pop=full gfinput

C 5 H 12 N 2

1 2
C    2.43159914  -0.47396982  -1.54328942
C    2.42343926   0.04202998  -0.11211996
C    3.32415891   1.26389956   0.03621999
N    2.74284887   2.50033903  -0.56324983
C    3.26477861   3.27415895   0.59324980
C    3.27304888   1.97094929   1.41728950
N    4.54782820   1.81942928   2.12576914
H    1.81072927  -1.37114954  -1.62651932
H    3.44708872  -0.72987974  -1.86172926
H    2.04058933   0.27569991  -2.23798895
H    2.78279901  -0.75428975   0.55075979
H    1.39346945   0.26697990   0.19132993
H    4.34023857   1.06617951  -0.33510989
H    1.72298944   2.49585891  -0.60502976
H    4.24083853   3.73163867   0.38877988
H    2.58867908   4.05427837   0.95656967
H    2.37465930   1.79771936   2.01805925
H    5.36868811   2.03567934   1.55851936
H    4.70164824   0.87914968   2.48772907

