%chk=mol_5646.chk
# wB97XD/Def2SVP opt pop=full gfinput

C 5 H 5 N 1 O 1

1 2
N    1.889726   0.000000   0.000000
C    4.064820   0.000000   0.000000
C    6.721775   0.000000   0.000000
C    8.193323  -2.026297  -0.164860
O   10.761650  -1.571855  -0.187895
C   10.916910   1.138333  -0.496091
C    8.344105   2.272282   0.150706
H    7.673233  -3.993709  -0.250559
H   11.429347   1.527825  -2.467982
H   12.416615   1.878426   0.719513
H    7.821538   3.760820  -1.185009
H    8.334845   3.057993   2.065395

