%chk=mol_4083.chk
# wB97XD/Def2SVP opt freq pop=full gfinput

C 5 H 8 N 2

1 2
C   -1.01697969   0.00019000  -1.27075958
C   -0.54064983   0.99848962  -0.13275994
N   -1.31246948  -0.00005000   0.76561975
C   -0.54053980  -0.99876964  -0.13265994
C    0.92557967  -0.77822971   0.25720990
N    1.87463939  -0.00002000  -0.51063979
C    0.92565966   0.77828974   0.25765991
H   -2.08805919   0.00008000  -1.50615954
H   -0.44392982   0.00005000  -2.20090914
H   -0.92583966   2.01900935  -0.14330995
H   -1.01564956  -0.00012000   1.74024940
H   -0.92578965  -2.01900935  -0.14361995
H    1.22238958  -1.28318954   1.16638947
H    1.65232933  -0.00002000  -1.50578940
H    1.22236955   1.28281951   1.16651964

