%chk=mol_3733.chk
# wB97XD/Def2SVP opt pop=full gfinput

C 6 H 8 O 1

1 2
O    4.794878  -1.004900  -2.774817
C    4.313016  -0.273651  -0.230395
C    5.517415   2.294241   0.314299
C    8.357559   2.152190   0.355779
C    9.782905   2.757394   2.360457
C   12.459399   2.595142   2.269504
C   14.722913   2.463863   2.195408
H    4.086571  -2.686359  -2.993572
H    5.046892  -1.735222   1.038027
H    2.262399  -0.151575   0.014570
H    4.804421   3.003323   2.125507
H    4.965690   3.649987  -1.152072
H    9.250474   1.525765  -1.390158
H    8.925535   3.395384   4.111798
H   16.731106   2.348212   2.120518

