%chk=mol_3494.chk
# wB97XD/Def2SVP opt freq pop=full gfinput

C 5 H 8 O 2

1 2
O    1.70555937  -0.13296995  -0.91507965
C    2.85534906   0.09573996  -0.09575997
C    3.50459862  -1.10657954   0.52600980
C    4.14839840  -0.38345987  -0.62749976
C    5.13281822   0.71209979  -0.41916984
O    4.39344883   1.88423932  -0.03268999
C    3.08432889   1.48228943   0.40903986
H    0.88246965  -0.04830998  -0.40393987
H    3.07124901  -2.07995915   0.32849988
H    3.94538856  -1.00667965   1.51046944
H    4.17877865  -0.83542967  -1.60706937
H    5.84560776   0.47101983   0.37612987
H    5.68892813   0.94261962  -1.33269954
H    3.05905890   1.51953948   1.50263953
H    2.35493898   2.19567919   0.01512999

