%chk=mol_2809.chk
# wB97XD/Def2SVP opt pop=full gfinput

C 7 H 8

1 2
C    1.622028   0.411450  -0.320554
C    4.458299   0.104785  -0.376698
C    5.474593  -2.420739  -0.841457
C    4.135496  -4.531280  -1.230344
C    5.931888   2.150489   0.000000
C    8.588843   2.150489   0.000000
C   10.837919   2.150489   0.000000
H    1.053579   2.369717   0.040006
H    0.789150  -0.747217   1.178925
H    0.789603  -0.136986  -2.134597
H    7.525645  -2.603910  -0.874716
H    2.086995  -4.576218  -1.239056
H    5.098424  -6.314520  -1.558457
H    5.046154   3.973640   0.335521
H   12.850554   2.148260  -0.000416

