%chk=mol_4703.chk
# wB97XD/Def2SVP opt freq pop=full gfinput

C 4 H 10 N 2 O 1

1 2
C    2.11680913   0.03827998   0.78146970
C    3.49049854  -0.16431993   0.16425994
N    4.16683865   1.12861955   0.12325995
C    5.37168789   1.18483961  -0.35825986
C    6.12629795  -0.01729999  -0.88339972
N    6.02903748   2.40032911  -0.40207982
O    5.15660763   3.49585867  -0.34531987
H    1.57277942  -0.91030961   0.82563967
H    1.52449942   0.74814969   0.19407992
H    2.20018911   0.43502986   1.79904938
H    3.36767864  -0.57261980  -0.84467965
H    4.04928827  -0.88063967   0.77598971
H    5.58003807  -0.46118981  -1.71987939
H    6.24338770  -0.75808972  -0.08802997
H    7.12131691   0.27123991  -1.23421955
H    6.78269768   2.51130891  -1.07569969
H    4.37077808   3.11627865   0.11168996

