%chk=mol_6078.chk
# wB97XD/Def2SVP opt freq pop=full gfinput

C 4 H 3 N 1 O 2

1 2
O    1.17388952  -0.10361996   0.48961982
C    2.32613921  -0.06387997   0.12777995
N    3.18038869  -1.09584951  -0.17126994
C    4.41457844  -0.64464980  -0.54694974
C    4.51989841   0.68945974  -0.54142976
C    3.19747901   1.18793952  -0.11038996
O    2.87446880   2.34609914   0.02494999
H    2.89649892  -2.06466937  -0.10988995
H    5.19221783  -1.34958947  -0.81236970
H    5.35669804   1.31632960  -0.78712970

