%chk=mol_6967.chk
# wB97XD/Def2SVP opt freq pop=full gfinput

C 5 H 6 N 2

1 2
C    2.68175888  -1.16398954   0.36088988
C    2.21328902   0.07544997   0.16703993
C    2.99788904   1.26006949   0.09771997
C    2.49737906   2.52527905  -0.10214996
N    3.57604885   3.36240864  -0.10184997
N    4.74630833   2.72954893   0.08460997
C    4.39200830   1.44617951   0.20630991
H    2.00017929  -2.00850940   0.39879984
H    3.73792863  -1.37667954   0.48595983
H    1.13635957   0.19063993   0.05179998
H    1.49520946   2.90296888  -0.24198991
H    3.58873868   4.36975813  -0.22231992
H    5.16555786   0.70726979   0.36828986

