%chk=mol_5560.chk
# wB97XD/Def2SVP opt freq pop=full gfinput

C 5 H 9 N 1 O 1

1 2
N    0.88532966   0.12764995   0.33354989
C    2.30460906   0.03397999  -0.03647999
C    3.13194871   0.95483965   0.88482964
O    3.39398861  -0.15390994   1.79757929
C    3.00028896  -1.09135962   0.75261974
C    2.50854897   0.14436994  -1.49055946
C    2.26109910  -0.88264966  -2.31507897
H    0.73038971   0.04088999   1.33914948
H    0.30556989  -0.58626980  -0.10278996
H    2.59955907   1.77281940   1.38062954
H    4.07119846   1.33928955   0.47085983
H    3.88603854  -1.53781939   0.28629991
H    2.36109924  -1.89017928   1.14205956
H    2.85316896   1.09293950  -1.89287925
H    1.90352929  -1.84237933  -1.95608926
H    2.40756893  -0.77519971  -3.38586879

