%chk=mol_4521.chk
# wB97XD/Def2SVP opt freq pop=full gfinput

C 4 H 8 N 2 O 1

1 2
C    1.67901945  -0.09233996  -1.71193933
C    2.15930915  -0.05890998  -0.27223989
C    3.16355872   1.04977965  -0.06992997
N    2.83022904   2.21262932   0.36943987
N    4.47838831   0.88561964  -0.37865987
C    5.14419842  -0.20835993  -0.87428963
O    6.34922791  -0.22185992  -1.08993959
H    0.96073967  -0.90568966  -1.85513926
H    2.50843906  -0.24055992  -2.41056895
H    1.18606961   0.84884965  -1.97910929
H    2.60187888  -1.02068961   0.00345000
H    1.30753946   0.10328996   0.39726987
H    1.82264924   2.25799918   0.55958980
H    5.05495834   1.69847929  -0.20463993
H    4.50658846  -1.08284962  -1.06592965

