%chk=mol_4262.chk
# wB97XD/Def2SVP opt freq pop=full gfinput

C 5 H 7 N 1 O 1

1 2
C    0.80280972   0.50518978  -0.11406996
C    2.09268928   0.19950992   0.08644997
C    3.28051877   1.12439954   0.01540999
C    3.95841837   1.35396957   1.35233951
O    3.43831873   2.59830904   1.84231937
N    3.02924895   3.36464858   0.72416973
C    2.94562888   2.54826903  -0.27059990
H    0.03576999  -0.26018989  -0.03186999
H    0.46399981   1.51094937  -0.34276989
H    2.33004904  -0.83752966   0.32392988
H    3.98469853   0.74439973  -0.73061973
H    5.04246855   1.46644950   1.23599946
H    3.76721859   0.56622976   2.08757925
H    2.64145899   2.86004901  -1.27993953

