%chk=mol_4767.chk
# wB97XD/Def2SVP opt pop=full gfinput

C 4 H 9 N 1 O 2

1 2
C    3.825240  -0.993240  -2.485991
C    4.682023  -0.111966   0.106959
N    6.021423   2.258582  -0.036472
C    8.514558   2.411631  -0.649556
O    9.936142   0.617751  -0.949682
O    9.156687   4.876420  -0.914892
C   11.724957   5.259882  -1.646405
H    2.790993  -2.777312  -2.338725
H    5.439350  -1.282463  -3.748310
H    2.583501   0.408464  -3.367190
H    5.911989  -1.537084   0.966935
H    3.048223   0.173269   1.342310
H    5.069152   3.912602  -0.009297
H   12.002123   7.281512  -1.971740
H   12.145573   4.256721  -3.406401
H   12.999936   4.655869  -0.134530

