%chk=mol_3045.chk
# wB97XD/Def2SVP opt freq pop=full gfinput

C 6 H 8 O 1

1 2
C    1.07579958  -0.29198989   1.76879942
C    1.67015946  -0.16746993   0.57467979
C    2.53163910   0.98430961   0.16461994
O    3.76457858   0.44511983  -0.30206987
C    4.70664835   1.45703948  -0.65657973
C    4.38627815   2.05331922  -1.96011925
C    4.12374830   2.54154921  -3.02428889
H    0.46728984  -1.16226959   1.99499917
H    1.18414962   0.46023983   2.54349923
H    1.53495944  -0.94995964  -0.16847995
H    2.71362901   1.66171932   1.00687969
H    2.03239918   1.53557944  -0.63916981
H    5.68710804   0.97230965  -0.71423972
H    4.76933861   2.21532917   0.13195996
H    3.88825846   2.96923900  -3.97243834

