%chk=mol_3641.chk
# wB97XD/Def2SVP opt pop=full gfinput

C 6 H 8 O 1

1 2
O    5.127810  -1.200978  -2.260812
C    4.326207   0.027836  -0.018859
C    5.341046   2.636244  -0.006595
C    4.064007   4.824320   0.201445
C    5.824268   6.903226   0.164709
C    8.182703   6.005814  -0.063627
C    8.126332   3.172699  -0.209023
H    4.318799  -2.848384  -2.276912
H    5.034212  -1.030411   1.610557
H    2.258430   0.023187   0.035224
H    2.045534   5.043377   0.375923
H    5.285318   8.866973   0.298974
H    9.881227   7.132261  -0.148570
H    8.903898   2.513921  -2.007815
H    9.173600   2.331487   1.363343

