%chk=mol_0100.chk
# wB97XD/Def2SVP opt pop=full gfinput

C 3 H 7 N 1 O 1

1 2
C    1.837173  -0.135380  -0.066896
N    4.587027  -0.001039  -0.182226
C    5.439293   2.631255   0.021297
C    8.298429   2.675682  -0.018576
O    9.541284   3.814110  -1.614771
H    1.237903  -2.108160  -0.226125
H    0.960661   0.923585  -1.613108
H    1.128941   0.587573   1.737263
H    5.166436  -0.708477  -1.884548
H    4.831274   3.478268   1.808865
H    4.729682   3.773632  -1.551994
H    9.236793   1.641246   1.530697

