%chk=mol_4093.chk
# wB97XD/Def2SVP opt freq pop=full gfinput

C 5 H 11 N 1 O 1

1 2
C    0.99941963   0.05697998   0.02733999
C    2.51367903  -0.01757999   0.02198999
N    3.14363885   0.99730963   0.90686965
C    4.16234827  -0.00769000   1.28952956
C    3.16718888  -1.11721957   0.89785969
C    3.71776867  -2.31186914   0.14962995
O    4.43205833  -3.14950871   1.05217957
H    0.57471979  -0.79343969  -0.51658982
H    0.65313971   0.97225964  -0.46439981
H    0.58904982   0.04101998   1.04327965
H    2.90897894   0.02536999  -1.00221968
H    2.55303907   1.28165948   1.69013941
H    5.06934834   0.04444999   0.67543977
H    4.45364809   0.01472999   2.34380913
H    2.53211904  -1.42506945   1.74144936
H    4.38820839  -2.02353930  -0.66713977
H    2.90246892  -2.90439892  -0.27633989
H    5.25658798  -2.69213891   1.29028952

