%chk=mol_4137.chk
# wB97XD/Def2SVP opt freq pop=full gfinput

C 5 H 7 N 1 O 1

1 2
C    0.97168964   0.02705999  -0.14520994
C    2.47448897  -0.01829999   0.07428998
N    2.87251878  -1.17591953   0.81735969
C    3.53395867  -0.86653966   1.97802925
O    4.01391840  -1.64328945   2.77847910
C    3.57028866   0.59726977   2.07603908
C    2.96592879   1.06628954   0.97735965
H    0.64400977  -0.83181971  -0.74113977
H    0.68138975   0.94031966  -0.67536974
H    0.42139983  -0.00441000   0.80226970
H    3.01220894  -0.01203999  -0.87942964
H    2.78376889  -2.13496923   0.51166981
H    4.02190828   1.13225961   2.89104891
H    2.84841895   2.11742926   0.75520974

