%chk=mol_5792.chk
# wB97XD/Def2SVP opt freq pop=full gfinput

C 4 H 4 N 2 O 1

1 2
N    0.89325964   0.07463998  -0.02470999
C    2.28107905   0.03999998  -0.03495999
C    2.89756894  -1.33707952  -0.07457998
O    2.20292902  -2.34163904   0.04848998
C    3.05351877   1.13798952   0.00000000
C    4.45951843   1.13798952   0.00000000
N    5.61052799   1.13798952   0.00000000
H    0.48836982   0.82175970   0.53257984
H    0.50824982  -0.84677970   0.21196991
H    3.99090862  -1.39601946  -0.19815992
H    2.58051920   2.11372924   0.02100999

