%chk=mol_6465.chk
# wB97XD/Def2SVP opt freq pop=full gfinput

C 4 H 6 N 2 S 1

1 2
C    0.95429969   0.00790000  -0.00484000
C    2.44313908   0.02471999   0.00063000
C    3.21761870   1.17340946  -0.00256000
S    4.86589813   0.73619974   0.00345000
N    4.60692835  -0.89516968   0.01175000
C    3.30032897  -1.13012958   0.01509999
N    2.81290889  -2.37840915   0.03316999
H    0.54257977   1.02212965   0.00375000
H    0.57368976  -0.51720983   0.87696970
H    0.58162981  -0.49896979  -0.90089971
H    2.90546870   2.20744920  -0.00752000
H    1.83208930  -2.61060905  -0.05328998
H    3.45965862  -3.15648866  -0.02553999

