%chk=mol_5401.chk
# wB97XD/Def2SVP opt freq pop=full gfinput

C 4 H 9 N 1 O 2

1 2
C    3.90617847  -1.14801955   0.02322999
O    3.09546900  -0.13590996   0.60965979
C    3.17545867   1.09631956  -0.09387996
C    4.47855854   1.81147933   0.17025994
N    5.29108763   2.09526920  -0.79646969
O    6.41050768   2.74955893  -0.26186991
C    7.28156710   3.09768867  -1.33179951
H    3.73913860  -2.07874918   0.57206976
H    4.96595812  -0.88843966   0.10005996
H    3.63003850  -1.30777955  -1.02341962
H    2.37406898   1.73942935   0.28324988
H    3.01721883   0.94679964  -1.16743958
H    4.69777822   2.07504940   1.21949959
H    8.16774654   3.58156872  -0.91277963
H    6.78435755   3.79776859  -2.01020932
H    7.59325743   2.20089912  -1.87611926

