%chk=mol_3600.chk
# wB97XD/Def2SVP opt freq pop=full gfinput

C 5 H 4 O 2

1 2
O    1.06057954   0.05776998   0.50372982
C    2.24228930  -0.03278999   0.24357991
C    3.33829880   0.95623964  -0.13256995
O    4.25203848  -0.16051993  -0.24863991
C    3.28324890  -1.15188956   0.18343994
C    3.07077885  -2.14270926  -0.84307969
C    2.89732885  -2.97881889  -1.68821943
H    3.62699866   1.64378941   0.66413975
H    3.18924880   1.47218943  -1.08191967
H    3.54502869  -1.55431950   1.16675961
H    2.74543905  -3.72644854  -2.43292904

