%chk=mol_0736.chk
# wB97XD/Def2SVP opt pop=full gfinput

C 5 H 8 O 1

1 2
C    1.279231  -1.490503  -0.138593
C    4.077481  -1.762245   0.194150
C    5.146386  -3.899450   1.049176
O    5.403710   0.439796  -0.307383
C    7.705566   0.346349  -1.498005
C    9.152983   2.394151  -1.758749
H    0.560342   0.027703   1.069207
H    0.263031  -3.225555   0.348673
H    0.837394  -1.025554  -2.105287
H    4.016594  -5.556399   1.475668
H    7.163026  -4.037249   1.388155
H    8.231137  -1.481186  -2.244711
H    8.552768   4.206077  -1.011003
H   10.957105   2.293580  -2.722925

