%chk=mol_6276.chk
# wB97XD/Def2SVP opt freq pop=full gfinput

C 5 H 5 N 1 O 1

1 2
O    2.76071906  -1.07639956   0.01093000
C    2.17573929  -0.00031000  -0.00219000
N    2.91157913   1.18838954   0.00278000
C    2.37213922   2.46010923  -0.01058000
C    3.39941859   3.37851882  -0.00028000
C    4.61174822   2.65308905   0.02008999
C    4.28666878   1.31496954   0.02157999
H    1.07762957   0.08839997  -0.01805999
H    1.29998946   2.60482907  -0.02633999
H    3.28685880   4.45549822  -0.00675000
H    5.61544800   3.05919886   0.03238999
H    4.91133833   0.43032983   0.03438999

