%chk=mol_3522.chk
# wB97XD/Def2SVP opt freq pop=full gfinput

C 5 H 8 O 2

1 2
O    0.60890979   0.78454971  -0.45436984
C    1.65197933  -0.03388999   0.09643997
C    2.15824914  -1.11611962  -0.80792969
C    3.00792885   0.09751996  -0.54773980
O    4.12597847  -0.07365997   0.34762987
C    5.25781775  -0.48581982  -0.30707988
C    6.40818739  -0.68255973   0.33609989
H    0.52061981   1.61472940   0.04570998
H    1.61562943  -0.25377992   1.15884960
H    1.70390940  -1.21496964  -1.78590930
H    2.45387912  -2.05429912  -0.35485986
H    3.09637880   0.83896971  -1.33671951
H    5.14764786  -0.64584976  -1.37197948
H    6.48337793  -0.51603979   1.40595949
H    7.29428720  -1.01478958  -0.19330992

