%chk=mol_6456.chk
# wB97XD/Def2SVP opt pop=full gfinput

C 6 H 8 S 1

1 2
C    1.650846   0.195133  -0.018406
C    4.464516   0.071866  -0.000529
C    6.176796   2.038466   0.015949
C    8.749697   1.196820   0.029839
C   10.997904   2.895023   0.049397
C    8.867162  -1.411550   0.023659
S    5.951352  -2.796095   0.000718
H    0.998645   2.157444  -0.003723
H    0.865136  -0.745686   1.647539
H    0.888738  -0.713069  -1.713169
H    5.611334   4.007013   0.017915
H   10.436938   4.885320   0.021335
H   12.183990   2.539603  -1.607741
H   12.129907   2.570878   1.750075
H   10.540627  -2.584579   0.031388

