%chk=mol_3575.chk
# wB97XD/Def2SVP opt pop=full gfinput

C 6 H 10 O 1

1 2
O    1.795051   0.194321  -0.498472
C    4.377172  -0.022393   0.219945
C    5.823853   2.386006  -0.494674
C    6.499940   2.427353  -3.304148
C    8.070983   0.112836  -4.044562
C    7.075475  -2.297624  -2.931041
C    5.379559  -2.346322  -1.045756
H    1.110120   1.654077   0.377964
H    4.438834  -0.275919   2.274077
H    4.699503   4.065538  -0.043142
H    7.573644   2.490810   0.611629
H    7.552253   4.153448  -3.755131
H    4.759445   2.475088  -4.432485
H   10.030100   0.363149  -3.419932
H    8.105111  -0.045146  -6.108974
H    7.744362  -4.062231  -3.741866
H    4.663844  -4.148157  -0.370349

