%chk=mol_2690.chk
# wB97XD/Def2SVP opt freq pop=full gfinput

C 6 H 8 O 1

1 2
C    0.99999964   0.00000000   0.00000000
C    2.44399905   0.00000000   0.00000000
C    3.63415861   0.00000000   0.00000000
C    5.06805801   0.00143000   0.03919999
C    5.82120800  -0.72605973  -1.04376960
C    5.82611799   0.77418971  -1.01068962
O    7.05989695   1.38876939  -0.60347980
H    0.60596979   1.02085960   0.01162999
H    0.60591978  -0.52053982   0.87822968
H    0.60600978  -0.50031978  -0.88994968
H    5.49603796  -0.02729999   1.03592956
H    5.26039839  -1.20690954  -1.83740926
H    6.72545719  -1.25373960  -0.76699972
H    5.25431824   1.28846955  -1.77753937
H    7.49223709   0.91541964   0.12682995

