%chk=mol_3361.chk
# wB97XD/Def2SVP opt freq pop=full gfinput

C 6 H 8 O 1

1 2
C    0.95745963   0.30875987  -0.61178976
O    2.25684905   0.07012997  -0.07544997
C    3.03570890   1.19798958  -0.07961997
C    4.37553835   1.16826952   0.00000000
C    5.15891838  -0.11199996   0.08632997
C    5.07853794   2.38589907   0.00000000
C    5.67361784   3.41660857   0.00000000
H    0.41707987  -0.64181978  -0.62669975
H    1.02278960   0.68441969  -1.63845944
H    0.40089983   1.01063967   0.01807999
H    2.47970891   2.12709928  -0.13015994
H    4.52134848  -1.00117958   0.07581997
H    5.74423790  -0.13695996   1.01151967
H    5.84923792  -0.19193992  -0.76007974
H    6.20766735   4.33808804   0.00080000

