%chk=mol_1642.chk
# wB97XD/Def2SVP opt pop=full gfinput

C 5 H 8 N 2

1 2
C    1.873456   0.024793  -0.008012
N    4.602787  -0.028157   0.001512
C    6.110600   2.084859  -0.002362
C    8.591243   1.299735   0.014192
C    8.577051  -1.375513   0.029291
C    6.094008  -2.154231   0.022072
N    5.138241  -4.506638   0.038229
H    1.215132   1.982833   0.007691
H    1.192077  -0.951269   1.680231
H    1.207119  -0.919805  -1.720029
H    5.306143   3.964362  -0.013946
H   10.232829   2.518778   0.017896
H   10.211721  -2.600773   0.046771
H    3.269850  -4.908772  -0.092464
H    6.287251  -6.043325  -0.042387

