%chk=mol_0015.chk
# wB97XD/Def2SVP opt freq pop=full gfinput

C 2 H 4 O 1

1 2
C   -0.08375996   0.89649969  -0.06110997
C   -0.79265970  -0.42853984  -0.06142998
O    0.63597977  -0.34072986   0.01330000
H   -0.02731999   1.45184946  -0.98864967
H   -0.12584996   1.50406945   0.83384967
H   -1.22309959  -0.78327972  -0.98915964
H   -1.32160950  -0.73103976   0.83329970

