%chk=mol_0772.chk
# wB97XD/Def2SVP opt freq pop=full gfinput

C 5 H 10 O 1

1 2
C    1.27773952  -1.05351961  -0.22386992
C    2.32532930  -0.00553000  -0.53842980
O    3.60711861  -0.53366983  -0.20481992
C    4.67566776   0.39797986  -0.45622984
C    6.03561783  -0.22586991  -0.59380978
C    5.32921791   0.30643988  -1.80560935
H    0.27561989  -0.69142973  -0.47430980
H    1.30207956  -1.31696951   0.83887970
H    1.47102940  -1.97413921  -0.78460968
H    2.13790917   0.90027964   0.04731998
H    2.29786897   0.24378991  -1.60418940
H    4.63402843   1.36871946   0.02879999
H    6.11339760  -1.30070949  -0.47907981
H    6.88622761   0.32698986  -0.21386991
H    5.69990778   1.22098958  -2.25150919
H    4.93427849  -0.41094986  -2.51641917

