%chk=mol_5173.chk
# wB97XD/Def2SVP opt freq pop=full gfinput

C 4 H 8 N 2 O 1

1 2
C    0.94849968  -0.05378998  -0.06391998
N    2.36064911   0.06897997  -0.39346984
C    2.95964885   1.16423953  -0.07959997
N    2.40759897   2.28282905   0.50328982
C    4.45708847   1.24904954  -0.42035985
C    5.19212818  -0.03687999  -0.64943975
O    4.96823788   2.36359906  -0.48698980
H    0.62894976  -1.08491957  -0.24453990
H    0.33751988   0.59708977  -0.69754970
H    0.75308973   0.16638993   0.99087965
H    1.43096948   2.44530916   0.29768988
H    2.98224902   3.11659884   0.37876984
H    4.82511806  -0.51999980  -1.55820942
H    5.06607819  -0.69618970   0.21296991
H    6.25871754   0.17322993  -0.76991969

