%chk=mol_3811.chk
# wB97XD/Def2SVP opt pop=full gfinput

C 5 H 7 N 1 O 1

1 2
C   -1.892315   0.000208  -2.449917
C   -1.052521   1.849173  -0.244757
O   -2.593951   0.000094   1.375173
C   -1.052388  -1.849456  -0.244890
C    1.747562  -1.488310   0.452136
N    3.547640  -0.000208  -0.966689
C    1.748620   1.487366   0.452230
H   -3.904968   0.000321  -2.923217
H   -0.749012   0.000113  -4.165448
H   -1.847434   3.751314  -0.232644
H   -1.848039  -3.751182  -0.232909
H    2.256635  -2.396418   2.212227
H    3.173568  -0.000151  -2.856907
H    2.257108   2.395493   2.212472

