%chk=mol_6629.chk
# wB97XD/Def2SVP opt freq pop=full gfinput

C 3 H 7 N 1 O 2 S 1

1 2
C    3.43304873  -0.74655968  -1.55521941
S    2.99753904  -0.07980997   0.03177999
O    1.55517936  -0.17220993   0.15323994
O    3.85862851  -0.70527977   1.01894963
C    3.41789865   1.59346938  -0.14510995
C    4.69079828   1.97724926  -0.00547000
N    5.17756796   3.25320888  -0.13966994
H    4.50708866  -0.63138980  -1.71291935
H    2.86791897  -0.22400992  -2.32956910
H    3.17179894  -1.80717933  -1.55930936
H    2.61805892   2.28112912  -0.37727988
H    5.47473812   1.25650954   0.23232991
H    4.47815800   3.98902845  -0.05977998
H    6.00171757   3.44252872   0.43002984

