%chk=mol_4487.chk
# wB97XD/Def2SVP opt freq pop=full gfinput

C 4 H 8 N 2 O 1

1 2
C    0.96836966   0.08534997  -0.14546995
C    2.44253922  -0.11930995   0.01603999
C    3.08237886  -1.30008948  -0.01280999
N    2.56650901  -2.55670905  -0.21945991
C    3.21724892   1.12932968   0.26653990
N    4.40293837   1.23362947  -0.39243987
O    2.78098893   2.04485917   0.95120960
H    0.77104974   0.84347969  -0.91124970
H    0.52312982   0.42209983   0.79654968
H    0.44741982  -0.82555968  -0.45360982
H    4.15920830  -1.34397948   0.15136994
H    1.56211936  -2.63099909  -0.07548998
H    3.07697892  -3.29611874   0.26046991
H    4.68739843   0.57687980  -1.10487962
H    4.89646816   2.11281919  -0.31770989

