%chk=mol_6960.chk
# wB97XD/Def2SVP opt freq pop=full gfinput

C 5 H 8 N 2

1 2
C    0.87281972   0.26726991  -0.21776992
C    2.18865919   0.10621995  -0.02157999
C    3.23801875   1.17833960   0.08473997
C    3.76143861   1.37588942   1.50643945
N    3.98127866   2.81997895   1.54926944
N    3.19372869   3.48058867   0.66530973
C    2.78646898   2.59013891  -0.18094993
H    0.21554992  -0.59649974  -0.27685991
H    0.40537986   1.24225950  -0.31213990
H    2.56363893  -0.91275966   0.07313997
H    4.05021858   0.96566963  -0.62059981
H    4.68647814   0.82092965   1.68855941
H    3.02065873   1.08764958   2.26175904
H    3.92030859   3.20702887   2.49215913
H    2.19110918   2.83681893  -1.07153964

