%chk=mol_7162.chk
# wB97XD/Def2SVP opt freq pop=full gfinput

C 6 H 9 N 1

1 2
C    2.17492914  -0.54748982   1.42605948
C    2.31703901   0.03255999   0.02584999
C    2.90020895   1.42584956   0.04496998
C    2.16716933   2.55994916   0.03289999
C    0.67676973   2.68092918   0.05370998
C    4.32890844   1.53697932   0.03917998
N    5.48607779   1.62312937   0.03509999
H    1.75510943  -1.55732942   1.37446940
H    1.50781941   0.06390998   2.04293919
H    3.14427900  -0.61183977   1.93158925
H    1.34287941   0.01906999  -0.47503981
H    2.95805883  -0.62599981  -0.57426983
H    2.68883896   3.51877856   0.02282999
H    0.16480994   1.72868931   0.20864993
H    0.32626987   3.11264896  -0.88855970
H    0.37669986   3.34927869   0.86717963

