%chk=mol_6049.chk
# wB97XD/Def2SVP opt pop=full gfinput

C 7 H 16

1 2
C    5.389461  -1.670121  -2.042718
C    4.662692  -0.100968   0.255151
C    5.845716   2.568516   0.293947
C    4.739528   4.042256   2.535105
C    8.786187   2.568950   0.243548
C    9.864900   5.250132   0.032163
C   10.000449   1.214546   2.493494
H    4.320122  -3.441720  -2.055077
H    7.397314  -2.160335  -2.030700
H    4.966899  -0.658173  -3.796800
H    5.150997  -1.140922   1.977939
H    2.597164   0.086001   0.262294
H    5.207726   3.537907  -1.429086
H    5.250718   3.182204   4.344858
H    2.671770   4.080769   2.425993
H    5.375421   6.008687   2.543931
H    9.389766   1.575748  -1.473060
H    9.586486   6.335666   1.770673
H    8.984174   6.281185  -1.530773
H   11.901874   5.181459  -0.333121
H    9.522538   2.124714   4.287996
H   12.063898   1.231175   2.319148
H    9.416146  -0.765641   2.592931

