%chk=mol_1242.chk
# wB97XD/Def2SVP opt pop=full gfinput

C 6 H 13 N 1

1 2
C    0.878874  -0.938892  -1.338871
C    3.616048  -1.055903  -0.472526
C    4.854139   1.554130  -0.523605
C    7.623061   1.411569   0.306098
N    8.737300   3.953118   0.310709
C   11.489611   3.930593   0.134000
C    9.875331   4.674162  -2.094705
H    0.027930  -2.823194  -1.279326
H    0.745875  -0.236065  -3.279771
H   -0.233098   0.307440  -0.118410
H    4.660461  -2.356073  -1.701226
H    3.690144  -1.831693   1.446566
H    3.810217   2.838539   0.725012
H    4.733745   2.333869  -2.440940
H    8.647481   0.079765  -0.912908
H    7.722517   0.656472   2.233146
H   12.460778   2.131876   0.080446
H   12.457207   5.415521   1.154075
H    9.750647   6.661549  -2.570991
H    9.726969   3.387391  -3.679316

