%chk=mol_2433.chk
# wB97XD/Def2SVP opt pop=full gfinput

C 6 H 10 O 1

1 2
C    1.568794   0.189558   0.495108
C    4.394539   0.042557  -0.078707
C    5.989619   1.808619   1.624730
O    6.651704  -0.277620   3.276880
C    5.815764  -2.062390   1.368672
C    4.971114   0.251957  -2.838425
C    4.495016  -1.660143  -4.425852
H    1.202811   0.108281   2.532327
H    0.540651  -1.382750  -0.375507
H    0.756816   1.958626  -0.212046
H    4.949212   3.282624   2.635525
H    7.688804   2.638379   0.781099
H    7.439171  -2.923482   0.415003
H    4.636538  -3.553630   2.182161
H    5.774247   2.004168  -3.548603
H    3.679958  -3.434558  -3.794306
H    4.912570  -1.482301  -6.428017

