%chk=mol_4545.chk
# wB97XD/Def2SVP opt freq pop=full gfinput

C 5 H 7 N 1 O 1

1 2
C    0.92828971   0.05372998   0.07175998
C    2.26955914  -0.04368998   0.03661998
C    2.80484891  -1.43650949   0.13340995
O    4.00615835  -1.67448938   0.16699994
C    3.19920897   1.09283960  -0.05281998
C    3.89016867   1.36243939  -1.36582947
N    2.83917880   2.24743915  -0.88024968
H    0.45311981   1.02959967   0.01218000
H    0.26839989  -0.80378968   0.14690994
H    2.05572939  -2.24498916   0.17968993
H    3.75152850   1.30405962   0.85757965
H    3.64174867   0.75475973  -2.22745919
H    4.90430832   1.74175930  -1.34376943
H    3.23826885   3.10241890  -0.48944983

