%chk=mol_4035.chk
# wB97XD/Def2SVP opt freq pop=full gfinput

C 4 H 8 N 2 O 1

1 2
C    0.99127966   0.03718999  -0.08350997
C    2.50772905   0.01552999   0.04881998
C    3.01792884  -1.32646954   0.61908978
N    3.63347864  -0.92261970   1.87612939
O    3.11828876  -1.59890938   2.98389888
C    3.46319866   0.43181986   1.98062921
N    2.91232896   1.08869958   1.00602961
H    0.64801973  -0.74090976  -0.77295971
H    0.65053976   1.00600958  -0.46206984
H    0.50572979  -0.12564996   0.88547969
H    2.96653867   0.21085992  -0.92699963
H    3.78268862  -1.75628924  -0.03827998
H    2.22114921  -2.06622910   0.75387973
H    3.85591865  -2.18142915   3.24735880
H    3.82977867   0.89328969   2.91135907

