%chk=mol_5973.chk
# wB97XD/Def2SVP opt pop=full gfinput

C 5 H 7 N 1 O 1

1 2
O    1.958229   0.154976  -0.026211
C    4.629810   0.012208  -0.062134
C    5.668876   2.510407   0.818535
C    7.049377   2.169972   2.927110
C    7.110888  -0.459298   3.811993
N    8.255212  -2.413029   2.255596
C    5.565810  -1.900687   1.866407
H    1.338021  -1.473514  -0.602520
H    5.281577  -0.442385  -1.972402
H    5.330729   4.287146  -0.120527
H    7.989781   3.678522   3.938548
H    6.783285  -0.844745   5.793862
H    9.342296  -1.610519   0.877721
H    4.221686  -3.299896   2.493834

