%chk=mol_2437.chk
# wB97XD/Def2SVP opt pop=full gfinput

C 6 H 8 O 1

1 2
C    1.961649  -0.016289  -0.068654
C    4.778002  -0.001134  -0.023981
C    6.311836  -1.412608  -1.959911
O    4.924418  -2.727026  -3.891834
C    6.246206   1.443127  -1.999897
C    8.455957   2.810079  -1.218798
C   10.296759   3.959373  -0.569866
H    1.227150   1.423909   1.221689
H    1.247805  -1.856259   0.550194
H    1.198672   0.375394  -1.951331
H    5.484023  -0.034865   1.901594
H    8.023890  -2.326895  -1.287244
H    3.890209  -1.602526  -4.910264
H    5.178039   2.332187  -3.507351
H   11.934716   4.980978   0.007956

