%chk=mol_2448.chk
# wB97XD/Def2SVP opt pop=full gfinput

C 5 H 8 O 2

1 2
C    1.698599   0.227825   0.037738
C    4.554467   0.000718   0.020163
C    5.989884   1.732444   1.834716
O    7.084394  -0.390021   3.157336
C    5.680857  -2.173525   1.599048
C    7.391834  -4.141033   0.244568
O    8.081338  -4.123893  -1.978430
H    0.841495  -1.316326  -1.039633
H    1.106265   2.011047  -0.827549
H    0.935055   0.166598   1.960307
H    5.295220   0.101252  -1.912989
H    4.835772   2.888994   3.101702
H    7.445389   2.909007   0.956598
H    4.277698  -3.140498   2.784058
H    7.982657  -5.718538   1.471964

