%chk=mol_0719.chk
# wB97XD/Def2SVP opt freq pop=full gfinput

C 5 H 10 O 1

1 2
C    1.14073956  -0.38233986   0.03238999
C    2.66072893  -0.36524984   0.00364000
C    3.20416880   1.06228960  -0.03332999
C    4.72856808   1.07510960  -0.07509997
C    5.29737806   2.47256899  -0.11465996
O    4.62803841   3.50108862  -0.08743997
H    0.77383971  -1.41305947   0.06145998
H    0.72631973   0.10067996  -0.85827971
H    0.75895971   0.13940994   0.91571969
H    3.00972891  -0.91978967  -0.87522966
H    3.04332876  -0.88616967   0.88909966
H    2.85379887   1.61415946   0.84789968
H    2.80683875   1.58702934  -0.91119969
H    5.09058809   0.54795980  -0.96464962
H    5.14113808   0.57653975   0.80876970
H    6.39810753   2.52529907  -0.16713993

