%chk=mol_1657.chk
# wB97XD/Def2SVP opt pop=full gfinput

C 5 H 8 N 2

1 2
C    1.858243   0.034639  -0.015326
N    4.586875   0.008012  -0.001361
C    6.116798   2.097483   0.007351
C    8.590676   1.271616   0.019937
C    8.518470  -1.387418   0.018293
N   10.505800  -2.942625   0.027458
C    6.039980  -2.138131   0.005197
H    1.183876   1.986499   0.003912
H    1.189167  -0.957921   1.667853
H    1.207629  -0.919030  -1.727928
H    5.342426   3.989533   0.003647
H   10.244583   2.470704   0.028724
H   10.322591  -4.849529   0.042387
H   12.313021  -2.307034   0.054197
H    5.187657  -3.994730  -0.000359

