%chk=mol_4974.chk
# wB97XD/Def2SVP opt freq pop=full gfinput

C 5 H 11 N 1 O 1

1 2
C    1.08133960  -0.00799000   0.12803996
N    2.53214908   0.01938999  -0.01848999
C    3.13137865   1.03834963   0.88771969
C    4.26270819   0.00369000   1.18087947
C    4.76654816  -0.03711999   2.61042905
O    5.39907789   0.05257998   0.27810991
C    3.16361880  -1.04210961   0.81562972
H    0.67081976  -0.87366968  -0.40319985
H    0.64489979   0.88847971  -0.32583988
H    0.74272972  -0.05849998   1.16996956
H    2.53251910   1.31733954   1.76450932
H    3.45424867   1.95263922   0.38053986
H    3.94177842  -0.07225997   3.32989883
H    5.36806822   0.84985971   2.83581877
H    5.39210796  -0.92041963   2.77665901
H    4.97979832   0.07656997  -0.60297978
H    3.51353860  -1.90843928   0.24573991
H    2.57438898  -1.40035951   1.66998935

