%chk=mol_2549.chk
# wB97XD/Def2SVP opt freq pop=full gfinput

C 5 H 8 O 2

1 2
C    0.98123962   0.06153997   0.23631991
C    2.41861916  -0.10264996  -0.19793993
O    3.27252889   0.92081964   0.37843987
C    4.13482857  -0.02240999   1.06817949
C    5.54764795   0.02319999   0.53399980
C    3.24592876  -1.14617956   0.54511982
O    3.21556878  -2.35128903   0.66259974
H    0.38030985  -0.79390973  -0.08928996
H    0.54543984   0.96351969  -0.20594992
H    0.89224964   0.14254995   1.32502961
H    2.54590917  -0.15180995  -1.28435957
H    4.06887865   0.10569996   2.15353918
H    5.57066774  -0.06082998  -0.55807978
H    6.14392757  -0.79631966   0.94799966
H    6.03425789   0.96451968   0.80944967

