%chk=mol_0614.chk
# wB97XD/Def2SVP opt freq pop=full gfinput

C 5 H 8 O 1

1 2
C    1.11125958  -0.04266999   0.09768996
C    2.43093920   0.01536999  -0.09601996
C    3.27709866   1.24049962   0.01640999
C    4.43750811   0.84205967  -0.86036968
C    4.49925804  -0.65545976  -0.64373976
O    3.14108896  -1.10078955  -0.51209980
H    0.57588977  -0.97636962  -0.03834999
H    0.54225981   0.83220971   0.39175987
H    3.59919858   1.38438952   1.05239964
H    2.78290892   2.14825940  -0.34210986
H    4.20546818   1.05967963  -1.91021931
H    5.37230825   1.34938943  -0.60571975
H    4.97391796  -1.17330956  -1.48285949
H    5.03863811  -0.90871972   0.27653989

