%chk=mol_6834.chk
# wB97XD/Def2SVP opt pop=full gfinput

C 5 H 12 N 2

1 2
C    2.251590  -0.240808  -0.220210
C    5.026426   0.235573  -0.266924
N    6.553079  -0.686254  -2.360835
C    6.282149   2.090736  -2.079285
C    4.719648   3.481877  -4.016103
C    8.584743   3.523867  -1.142075
N   10.583960   3.317943  -3.033861
H    1.281763   1.315627   0.735708
H    1.852574  -1.979167   0.829798
H    1.432866  -0.453024  -2.107026
H    5.847190   0.013965   1.601203
H    5.467847  -1.314531  -3.825127
H    3.265277   2.292030  -4.880105
H    5.913860   4.191280  -5.550314
H    3.778659   5.099634  -3.133960
H    9.266367   2.744846   0.651861
H    8.118887   5.514429  -0.818459
H   10.780264   1.435171  -3.428492
H   12.249205   3.869309  -2.246431

