%chk=mol_4834.chk
# wB97XD/Def2SVP opt freq pop=full gfinput

C 5 H 5 N 1 O 1

1 2
C    0.99240965  -0.07626997  -0.29768988
C    2.49783897  -0.05467998  -0.19985992
O    3.13770866  -1.10391963  -0.28197989
C    3.20399880   1.25053942   0.00000000
C    2.53262901   2.40256906   0.17524993
C    4.60999823   1.25053942   0.00000000
N    5.76100779   1.25053942   0.00000000
H    0.65611976   0.56365979  -1.11822963
H    0.54677975   0.23747991   0.65025973
H    0.65904975  -1.09733963  -0.51063979
H    1.45060945   2.46915913   0.18848993
H    3.06480885   3.34140873   0.31847987

