%chk=mol_6930.chk
# wB97XD/Def2SVP opt freq pop=full gfinput

C 7 H 10

1 2
C    1.32399952   0.26053989   0.32923988
C    2.74614882  -0.06745997   0.11681996
C    3.35217857  -1.11982965  -0.45537984
C    4.80243826  -0.78787971  -0.30013990
C    4.91254807   0.75701970  -0.65716976
C    3.89321852   0.78830975   0.56080979
C    4.93872833  -0.23444992   1.18352950
H    0.67558974  -0.56436980   0.01931999
H    1.04661965   1.14775956  -0.24681990
H    1.13179958   0.46156985   1.38793957
H    2.91624880  -1.99294925  -0.91054964
H    5.54016781  -1.48751938  -0.68768972
H    4.52217865   1.06565964  -1.63269937
H    5.88658762   1.23371959  -0.50001979
H    3.68565869   1.72758937   1.07001960
H    5.91474771   0.16980994   1.47391951
H    4.57290792  -0.88386965   1.98547924

