%chk=mol_0343.chk
# wB97XD/Def2SVP opt freq pop=full gfinput

C 5 H 11 N 1

1 2
C    3.69016862  -1.69772935   1.21831954
C    3.25376868  -0.88845968   0.02854999
C    2.63659906  -1.45921946  -1.01926959
C    3.50329852   0.60452974   0.08892997
C    4.99438810   0.96561962   0.05330998
N    5.18612814   2.41597891   0.06481998
H    4.78032827  -1.69714940   1.30596948
H    3.36463881  -2.74030900   1.14589965
H    3.26484895  -1.28235948   2.13719916
H    2.44325900  -2.52792907  -1.05264962
H    2.30299926  -0.87504965  -1.87276936
H    3.04344893   1.00240958   1.00325966
H    2.99380898   1.10161960  -0.74752975
H    5.46410799   0.54855978  -0.84434968
H    5.50951767   0.54460979   0.92246968
H    4.76185846   2.82116890  -0.76915967
H    6.18299770   2.62133908   0.00399000

