%chk=mol_4242.chk
# wB97XD/Def2SVP opt pop=full gfinput

C 5 H 9 N 1 O 1

1 2
C    4.166052  -1.022172  -2.614871
C    4.470695   0.115065   0.005027
C    6.239252   2.377162  -0.085019
C    5.187563   4.859790  -1.230325
N    6.129894   6.148564   1.035778
C    6.404206   3.956444   2.359304
O    6.550566   3.602876   4.605055
H    2.939885  -2.685320  -2.539641
H    5.995364  -1.600919  -3.389677
H    3.326730   0.340283  -3.925849
H    5.244992  -1.321939   1.279930
H    2.613378   0.653713   0.746820
H    8.129772   1.873286  -0.780287
H    3.132334   4.999100  -1.413629
H    6.110108   5.494379  -2.965075
H    5.384718   7.638708   1.967999

