%chk=mol_1769.chk
# wB97XD/Def2SVP opt freq pop=full gfinput

C 5 H 8 N 2

1 2
C    0.77589971   0.35386986  -0.11753996
N    2.20365906   0.19879992   0.07170998
C    3.10292888   1.23975956   0.06009997
C    4.44678831   1.20939946   0.00000000
C    5.25766802  -0.05253998  -0.05664998
C    5.14978790   2.42703915   0.00000000
N    5.72528791   3.42383862   0.00000000
H    0.26863989  -0.58843976   0.10944996
H    0.55482978   0.62471980  -1.15434957
H    0.37366986   1.12551951   0.54638976
H    2.57214904  -0.71737975  -0.16955994
H    2.59701920   2.20631909   0.11629996
H    4.65069818  -0.95944965   0.01566999
H    5.97745752  -0.08023997   0.76965976
H    5.81596756  -0.10344996  -0.99832964

