%chk=mol_0689.chk
# wB97XD/Def2SVP opt freq pop=full gfinput

C 5 H 10 O 1

1 2
C    0.70513970  -0.12842995   0.12877995
C    2.13024926  -0.54671979  -0.09910996
C    2.45524907  -1.83090937  -0.32198989
C    3.17895889   0.55055982  -0.10931996
C    3.33478880   1.27363956   1.23059952
O    3.84138870   0.39969984   2.23488927
H    0.57389975   0.25658989   1.14552951
H    0.00736000  -0.96318960   0.00127000
H    0.41829985   0.65361977  -0.58153981
H    1.70440936  -2.61598921  -0.33411986
H    3.48199892  -2.13552928  -0.50577980
H    2.91363883   1.27899957  -0.88375968
H    4.15190840   0.12814994  -0.39058986
H    2.39016891   1.70102942   1.58177936
H    4.04946852   2.09553933   1.12346959
H    3.25996876  -0.38204983   2.25070906

