%chk=mol_4728.chk
# wB97XD/Def2SVP opt pop=full gfinput

C 6 H 9 N 1

1 2
C    1.431184  -2.456984   1.552505
C    3.115232  -0.351621   0.500173
N    1.009378   0.594905  -1.059929
C   -0.436281   2.626700   0.205980
C   -2.971273   1.517318   0.741226
C   -2.976696  -0.959679   0.279188
C   -0.447506  -1.766705  -0.562798
H    2.229404  -4.360675   1.446831
H    0.777282  -2.114717   3.488718
H    4.688675  -1.068111  -0.644132
H    3.908275   0.952535   1.897191
H    0.435979   3.313994   1.954430
H   -0.622816   4.225749  -1.093622
H   -4.568715   2.599904   1.403877
H   -4.573459  -2.214060   0.494938
H   -0.467575  -3.079346  -2.163113

