%chk=mol_1690.chk
# wB97XD/Def2SVP opt freq pop=full gfinput

C 5 H 10 N 2

1 2
C    1.13225961  -0.00298000   0.24861991
N    2.44460893   0.08319997  -0.37432986
C    3.09383893   1.18359947  -0.24789992
C    2.64824891   2.44185901   0.45885983
C    3.47181869   3.49136853  -0.29275990
C    4.74482870   2.76608896  -0.73452973
N    4.33193827   1.38537955  -0.78361970
H    0.79702967  -1.04465961   0.22995992
H    0.39657986   0.58966976  -0.30419987
H    1.14989960   0.31196988   1.29759955
H    2.93767881   2.38085890   1.51299942
H    1.57741940   2.63056898   0.37095985
H    2.91494894   3.82148862  -1.17904961
H    3.68248868   4.37605858   0.31475988
H    5.09508801   3.12215877  -1.70728934
H    5.54415798   2.88974881   0.00251000
H    4.63300848   0.76592970  -1.52576947

