%chk=mol_5725.chk
# wB97XD/Def2SVP opt freq pop=full gfinput

C 4 H 10 N 2 O 1

1 2
N    2.75618887  -0.32928985   1.84436929
C    2.57955909  -0.32386988   0.39772987
C    3.14637876   0.94785964  -0.23671991
C    4.63055801   1.19277954   0.03628999
C    5.47132778   0.06092998  -0.48182982
N    6.01483774   0.12427995  -1.65477931
O    6.70363760  -1.07069957  -1.89627922
H    2.33080912  -1.17198956   2.23134923
H    2.24467921   0.45324984   2.25343895
H    1.51137948  -0.39751986   0.16487993
H    3.06124878  -1.21024954  -0.02715999
H    2.57760906   1.81633937   0.11962995
H    2.98386884   0.89118969  -1.32045949
H    4.82785797   1.30790949   1.10662949
H    4.93913794   2.11964917  -0.46061984
H    5.56392813  -0.83422965   0.15884994
H    7.07120705  -0.92158967  -2.78769898

