%chk=mol_6333.chk
# wB97XD/Def2SVP opt freq pop=full gfinput

C 5 H 7 N 1 O 1

1 2
O    1.04331958   0.09429996  -0.39275986
N    2.36096907  -0.01234000   0.06630997
C    2.93733907   1.14388955   0.10667995
C    4.35819864   1.26705945   0.58225983
C    4.54473829   2.77349901   0.69372976
C    3.32156897   3.35385871   0.05733998
C    2.38848901   2.45850921  -0.27500990
H    0.72734970  -0.82551968  -0.33133987
H    5.02963829   0.83080971  -0.16321994
H    4.49941826   0.76082975   1.54014945
H    5.45638800   3.09954882   0.18300994
H    4.60813808   3.08641887   1.74229932
H    3.20266891   4.42012787  -0.09384997
H    1.42445946   2.61888909  -0.72163969

