%chk=mol_5116.chk
# wB97XD/Def2SVP opt pop=full gfinput

C 4 H 8 N 2 O 1

1 2
C    2.482325  -0.527706   0.763430
N    4.837793   0.851832   0.413510
C    4.720422   3.189234  -0.229847
C    2.327821   4.676108  -0.665713
N    6.908064   4.552256  -0.565803
C    9.315575   3.642882  -0.276335
O   11.186744   4.970452  -0.593582
H    2.913882  -2.417848   1.483983
H    1.477104  -0.762958  -1.028937
H    1.248240   0.387299   2.148694
H    1.143076   3.708436  -2.054624
H    2.728179   6.578534  -1.367292
H    1.290664   4.841535   1.114447
H    6.831436   6.393888  -1.058247
H    9.430754   1.635256   0.262181

