%chk=mol_5615.chk
# wB97XD/Def2SVP opt pop=full gfinput

C 5 H 5 N 1 O 1

1 2
N    1.889726   0.000000   0.000000
C    4.064820   0.000000   0.000000
C    6.793584   0.000000   0.000000
C    7.863698  -2.359172  -1.313020
C    8.753532  -1.301530  -3.751050
C    8.646649   1.200827  -3.609925
O    7.749068   2.186678  -1.371072
H    7.503252   0.119941   1.942128
H    6.471726  -3.868439  -1.563068
H    9.477506  -3.123850  -0.264977
H    9.433380  -2.380545  -5.341878
H    9.209807   2.582216  -4.997985

