%chk=mol_5254.chk
# wB97XD/Def2SVP opt freq pop=full gfinput

C 4 H 7 N 1 O 2

1 2
C    1.41198945   2.46006918   0.58465981
N    2.65514898   2.46030903   0.24070992
O    3.12002897   1.13778949   0.24086991
C    4.50439835   1.14769959  -0.17316993
C    5.54440784   1.59077942   0.86034966
O    6.32285786   0.38335985   0.66003972
C    5.23701811  -0.19504993  -0.10515996
H    0.85770965   3.40965867   0.64232975
H    0.85633969   1.53922939   0.83012968
H    4.62562799   1.63337934  -1.14981961
H    5.19094801   1.66630936   1.89320934
H    6.11082792   2.48774910   0.59558976
H    5.58066750  -0.58642977  -1.06661963
H    4.73231840  -0.98626959   0.45752981

