%chk=mol_4505.chk
# wB97XD/Def2SVP opt freq pop=full gfinput

C 4 H 9 N 1 O 2

1 2
C    0.88488966  -0.06058998   0.04549998
C    2.40919900   0.02847999  -0.01058000
C    3.05685878  -0.76793975   1.12219965
N    2.89792895  -0.50225985  -1.32334960
C    2.85980892   1.50279951   0.10892996
O    3.80803847   1.79681933  -0.82131970
O    2.45384908   2.30821919   0.93094963
H    0.42003983   0.55107981  -0.73666972
H    0.50370979   0.30378991   1.00645959
H    0.53903979  -1.09287965  -0.08028997
H    2.74393892  -0.38487986   2.10049915
H    4.15049839  -0.69774973   1.08529961
H    2.78402877  -1.82837927   1.07594955
H    2.24312925  -0.20163994  -2.05455923
H    2.79972887  -1.52198935  -1.30941951
H    3.94287848   0.96107960  -1.33525944

