%chk=mol_1022.chk
# wB97XD/Def2SVP opt pop=full gfinput

C 4 H 5 N 1 O 1

1 2
C    1.930053   0.099759   0.207435
C    4.686691   0.005877  -0.513495
O    5.569344  -1.842162  -1.622462
C    6.295245   2.289592   0.048490
C    6.223681   2.921517   2.732827
N    6.127324   3.447352   4.860262
H    1.077106   1.832108  -0.525552
H    1.728948   0.013247   2.259961
H    0.944863  -1.516354  -0.623610
H    5.612657   3.862468  -1.109080
H    8.240264   1.886230  -0.533829

