%chk=mol_6817.chk
# wB97XD/Def2SVP opt pop=full gfinput

C 5 H 8 N 2

1 2
C    1.725188   0.157943  -0.016176
C    4.523853   0.097642  -0.004611
C    6.160998   2.122370   0.013020
N    8.537631   1.134289   0.017631
N    8.579621  -1.397226   0.004176
C    6.134240  -2.054680  -0.009335
C    5.432169  -4.769215  -0.027250
H    1.015596   2.101262  -0.001172
H    0.973171  -0.809861   1.650052
H    0.988043  -0.778699  -1.706782
H    5.848287   4.139766   0.022412
H   10.211456   2.068645   0.029499
H    3.379983  -5.023516  -0.019842
H    6.197338  -5.725341   1.640282
H    6.182409  -5.698639  -1.716533

