%chk=mol_0660.chk
# wB97XD/Def2SVP opt freq pop=full gfinput

C 6 H 12

1 2
C    0.73126978   1.26309955  -0.22211993
C   -0.72779977   1.26099944   0.22688991
C   -1.45644951   0.00143000  -0.23354991
C   -0.72881973  -1.26357961   0.21250992
C    0.73006970  -1.26202953  -0.23640992
C    1.45933938  -0.00259000   0.22313991
H    0.77531970   1.34377956  -1.31537950
H    1.24088955   2.14422941   0.18385993
H   -1.23671949   2.14720917  -0.16882995
H   -0.77211970   1.32855952   1.32098949
H   -2.47737908  -0.00038000   0.16419993
H   -1.53915942   0.00770000  -1.32733953
H   -0.77332973  -1.34377956   1.30581951
H   -1.23855960  -2.14489913  -0.19335993
H    1.23909950  -2.14828920   0.15956993
H    0.77445972  -1.33024955  -1.33039951
H    1.54047942  -0.00872000   1.31606948
H    2.47993922  -0.00055000  -0.17550994

