%chk=mol_5930.chk
# wB97XD/Def2SVP opt pop=full gfinput

C 5 H 9 N 1 O 1

1 2
O    1.943602  -0.191694  -0.176141
C    4.618699   0.100004  -0.060093
C    6.341486  -1.113275  -2.086881
C    8.352287  -0.577576   0.019124
C    6.205482  -1.424854   1.868127
N    8.376192   2.224945   0.229583
C    5.644404   2.769224   0.176859
H    1.319747   0.374657   1.456431
H    6.572921  -0.090499  -3.870386
H    5.981229  -3.108883  -2.510917
H   10.156050  -1.564164  -0.001776
H    5.826479  -3.460391   1.950273
H    6.304636  -0.692906   3.801071
H    9.138375   2.879886   1.875118
H    5.157516   3.953950  -1.445489
H    5.024177   3.694226   1.921133

