%chk=mol_3792.chk
# wB97XD/Def2SVP opt pop=full gfinput

C 5 H 8 O 2

1 2
O    7.711103   3.371196   5.105927
C    6.081044   4.328493   3.785046
O    6.244392   4.881824   1.292629
C    8.603999   4.260123   0.111343
C   10.431043   6.391394   0.455651
C   12.128036   7.216883  -1.679305
C    9.994950   8.893769  -0.834768
H    4.200559   4.889855   4.475439
H    8.200466   3.945899  -1.894998
H    9.377917   2.485273   0.849167
H   11.204697   6.425239   2.353975
H   11.953859   6.295566  -3.500680
H   14.039701   7.790528  -1.214395
H   10.461108  10.595864   0.206396
H    8.371222   9.086786  -2.069345

