%chk=mol_1222.chk
# wB97XD/Def2SVP opt pop=full gfinput

C 5 H 8 N 2

1 2
C    1.760374  -0.102007  -0.136514
C    4.633665   0.048849   0.033505
C    5.832469  -1.374077  -2.048047
C    6.806775  -2.543666  -3.731510
C    5.466430   2.823478   0.013568
N    5.176470   4.268778  -2.102301
N    6.456174   3.894253   1.981983
H    0.875453   0.975987   1.393484
H    1.112425  -2.063770   0.001436
H    1.056395   0.664277  -1.927974
H    5.224847  -0.794195   1.832467
H    7.674386  -3.591462  -5.217912
H    5.313116   3.358346  -3.781871
H    6.213344   5.879732  -2.013144
H    6.577608   2.647336   3.459257

