%chk=mol_5821.chk
# wB97XD/Def2SVP opt pop=full gfinput

C 4 H 6 N 2 O 1

1 2
N    6.230446  -2.539849   0.055652
C    4.908847  -0.340850  -0.124665
N    2.466660  -0.398335  -0.222194
C    6.100395   2.193518  -0.241413
C    8.566148   2.547748   0.179316
C    9.616268   5.124181   0.060981
O   11.873243   5.506379   0.399450
H    8.024778  -2.529021  -0.613481
H    5.294880  -4.134097  -0.436640
H    1.846886  -2.219408  -0.063778
H    4.810922   3.738748  -0.641694
H    9.887614   1.060004   0.644775
H    8.275545   6.664138  -0.355212

