%chk=mol_5517.chk
# wB97XD/Def2SVP opt pop=full gfinput

C 4 H 5 N 1 O 2

1 2
N    2.085710  -0.202295  -0.203183
C    4.586649   0.126385  -0.104483
C    6.086959   2.247905  -0.036585
C    8.617170   1.370581   0.050664
C    8.456033  -1.214810   0.033240
O   10.118293  -3.067876   0.081050
O    6.022161  -1.999179  -0.054519
H    0.889041   1.239509   0.192865
H    1.375588  -1.949782   0.137780
H    5.443999   4.184609  -0.058204
H   10.334572   2.470609   0.111097
H    9.063410  -4.572665   0.015647

