%chk=mol_5917.chk
# wB97XD/Def2SVP opt freq pop=full gfinput

C 4 H 8 N 2 O 1

1 2
N    2.06694913  -0.36018986  -1.49583936
N    1.95873916   0.57670981  -0.45062983
C    0.82845968   0.55289978   0.35932988
O   -0.14922994  -0.16796993   0.19050993
C    3.12641883   1.34585953  -0.14546995
C    3.82743859   2.17127919  -1.19514966
C    3.08243871   2.85185909  -0.08715996
H    1.58726931   0.04572998  -2.30182910
H    1.47395945  -1.15717959  -1.23602951
H    0.90025967   1.26563942   1.19754958
H    3.76744866   0.84513968   0.57659978
H    3.40285873   2.20483923  -2.19151926
H    4.91062832   2.19101906  -1.17524946
H    3.66161847   3.34555864   0.68435973
H    2.15903902   3.35791874  -0.34348989

