%chk=mol_4635.chk
# wB97XD/Def2SVP opt freq pop=full gfinput

C 4 H 8 N 2 O 1

1 2
C    1.13269949   0.01788999   0.40148985
C    2.59730911  -0.22223993   0.07705997
C    3.40836883   1.05961955   0.10104997
O    2.92745900   2.15893912   0.36934987
N    4.75372839   0.96694958  -0.19297992
C    5.48395777  -0.13362995  -0.53087980
N    6.73784733  -0.04767998  -0.77771974
H    0.58245981  -0.92842966   0.40169987
H    0.67090976   0.68149972  -0.33753988
H    1.01645970   0.48129985   1.38707948
H    2.67322898  -0.67006975  -0.91910970
H    3.01837897  -0.91542971   0.81271970
H    5.22442770   1.85934937  -0.14895995
H    4.94954824  -1.09235954  -0.58148974
H    7.07519770   0.91267967  -0.68452972

