%chk=mol_4965.chk
# wB97XD/Def2SVP opt pop=full gfinput

C 5 H 11 N 1 O 1

1 2
C    2.073332   0.014570   0.026116
N    4.831708  -0.004460  -0.003288
C    5.847493   1.923118   1.768103
C    7.819611  -0.052723   2.592175
C    5.828425  -2.014599   1.718800
C    6.811159  -4.311788   0.289997
O    8.176014  -5.906925   1.980131
H    1.348074  -1.628623  -1.001857
H    1.373566   1.703796  -0.943181
H    1.257669  -0.012699   1.930544
H    4.577597   2.512618   3.298385
H    6.620561   3.609812   0.856972
H    9.562883  -0.017990   1.472569
H    8.298656  -0.073548   4.600652
H    4.541352  -2.562601   3.257529
H    8.062139  -3.794532  -1.276264
H    5.238737  -5.413725  -0.479556
H    9.760870  -5.057209   2.359890

