%chk=mol_4945.chk
# wB97XD/Def2SVP opt freq pop=full gfinput

C 4 H 9 N 1 O 2

1 2
C    0.85770965   0.57838982  -0.84633970
C    1.82016933  -0.37023985  -0.16032994
O    3.09605885   0.27088991  -0.07113998
N    3.99728847  -0.61682975   0.57512981
C    4.97210836  -1.15140963  -0.35123989
C    4.42179871  -0.13283995   1.79804933
O    5.46003771  -0.43813983   2.37366915
H   -0.13761996   0.13296995  -0.92827964
H    1.21544957   0.83031964  -1.85020924
H    0.78043973   1.51863945  -0.29052991
H    1.91063929  -1.29375958  -0.74322975
H    1.45569944  -0.61157978   0.84454972
H    4.45190811  -1.65674937  -1.16917956
H    5.62553787  -1.86027932   0.16518994
H    5.57791758  -0.33135986  -0.74887967
H    3.67719865   0.53704983   2.26030922

