%chk=mol_5700.chk
# wB97XD/Def2SVP opt freq pop=full gfinput

C 5 H 9 N 1 O 1

1 2
N    2.05210924  -0.65094972  -1.15907967
C    2.99150896  -0.30130988  -0.10567996
C    3.07915878   1.18464959   0.00374000
C    4.21506834   1.89022923  -0.12554996
C    4.33357859   3.34740877  -0.02322999
C    4.41709805   3.97352862   1.34601951
O    5.53520775   3.97542858   0.45198983
H    1.99571919  -1.66552937  -1.22884953
H    2.42618895  -0.33054990  -2.05162930
H    3.96747851  -0.75198972  -0.31619987
H    2.63654900  -0.70965970   0.84629971
H    2.14705920   1.70636928   0.21123992
H    5.14423800   1.36215949  -0.33102989
H    3.78490853   3.88958859  -0.78741968
H    4.47894859   3.33556867   2.21856904
H    3.90492845   4.91313791   1.50955939

