%chk=mol_2749.chk
# wB97XD/Def2SVP opt freq pop=full gfinput

C 6 H 6 O 1

1 2
C    1.70016932  -0.61957979   1.04623961
C    2.44809890  -0.09680996   0.06494997
C    3.15225887   1.22560954   0.14541994
C    4.60278797   1.02046967   0.04604998
C    5.79116821   0.86465967  -0.03269999
C    7.21732712   0.67363977  -0.12466995
O    7.96887732   1.62182939  -0.29881990
H    1.21049953  -1.58047938   0.91909963
H    1.56075943  -0.10859996   1.99408925
H    2.54955912  -0.64860976  -0.86777967
H    2.91261888   1.74427938   1.08058953
H    2.80503893   1.86401939  -0.67437977
H    7.56667709  -0.36611986  -0.02867999

