%chk=mol_3734.chk
# wB97XD/Def2SVP opt freq pop=full gfinput

C 6 H 10 O 1

1 2
O    1.17043960   0.97667962   1.08586955
C    2.57368898   1.17314959   1.23104954
C    3.22842884   1.18288958  -0.14918995
C    4.72463846   1.40741944  -0.08489997
C    5.56637764   0.36080986  -0.15572995
C    5.26930809   2.75338912   0.02128999
C    4.57377815   3.89629841   0.07852997
H    0.79451972   0.95847964   1.98253918
H    2.97217894   0.35692987   1.84270930
H    2.73385906   2.11762929   1.75963938
H    2.74504900   1.92546928  -0.79663968
H    3.00895905   0.22510992  -0.64189976
H    5.19552803  -0.65604973  -0.24637990
H    6.64496756   0.48033980  -0.12526995
H    6.35619783   2.83306885   0.04980998
H    3.49062872   3.93578863   0.05005998
H    5.09390831   4.84731817   0.14874995

