%chk=mol_6060.chk
# wB97XD/Def2SVP opt freq pop=full gfinput

C 5 H 8 N 2

1 2
C    0.95977962  -0.00457000   0.04931998
C    2.44345903   0.04559999   0.02924999
C    3.28906894   1.13802958  -0.06347997
C    4.61940813   0.65740973  -0.01995999
C    4.55094814  -0.71387970   0.09620997
N    3.23469877  -1.06959951   0.11557996
N    2.77754903  -2.39746928   0.19810992
H    0.53483981   1.00481963   0.05209998
H    0.59800977  -0.52167982   0.94410968
H    0.57903981  -0.52574980  -0.83522964
H    2.97763872   2.17179918  -0.14394996
H    5.52690792   1.24607956  -0.06037998
H    5.33465767  -1.45412946   0.17179993
H    1.96458924  -2.54157925  -0.39561984
H    3.47733879  -3.05009890  -0.14514995

