%chk=mol_5275.chk
# wB97XD/Def2SVP opt freq pop=full gfinput

C 5 H 7 N 1 O 1

1 2
C    3.19514894  -1.10847962   0.50291979
O    2.41686916   0.05851998   0.27608988
C    3.05698895   1.22626948   0.16167995
C    2.51510906   2.47866917  -0.04895998
C    3.57364845   3.41668868  -0.10203996
C    4.74347782   2.71591902   0.07706997
N    4.42173862   1.39189947   0.23548992
H    2.51387906  -1.96128929   0.57324976
H    3.74488854  -1.03500962   1.44710946
H    3.88062835  -1.29014957  -0.33142990
H    1.45846939   2.68551898  -0.15259995
H    3.48898864   4.48410797  -0.25433990
H    5.77448797   3.04219890   0.10545996
H    5.09364796   0.65348977   0.38361984

