%chk=mol_3985.chk
# wB97XD/Def2SVP opt freq pop=full gfinput

C 5 H 5 N 1 O 1

1 2
C    0.93262964   0.02412999  -0.00692000
C    2.40420890   0.01364999  -0.00231000
C    3.32113862   0.99170959   0.00324000
N    4.65282869   0.62518972   0.00760000
C    4.63905811  -0.66508973   0.00525000
C    3.23510885  -1.18580961  -0.00124000
O    2.91340899  -2.34990907  -0.00443000
H    0.54174978   1.04650962   0.00304000
H    0.54174978  -0.49502981   0.87365967
H    0.54743981  -0.47592983  -0.90093970
H    3.07646894   2.04922915   0.00461000
H    5.48035812  -1.36987960   0.00738000

