%chk=mol_6457.chk
# wB97XD/Def2SVP opt freq pop=full gfinput

C 5 H 7 N 1 S 1

1 2
C    0.93806964   0.08492997  -0.00550000
C    2.42322922   0.00072000  -0.00131000
N    3.22752881   1.04196954   0.00367000
C    4.54808807   0.62458974   0.00640000
C    5.61549807   1.65503931   0.01186000
C    4.72027826  -0.74637973   0.00316000
S    3.19805884  -1.53214931  -0.00327000
H    0.61383975   1.13088953   0.00255000
H    0.51716977  -0.40448985   0.87893969
H    0.52349979  -0.38894984  -0.90131962
H    6.61173773   1.20076954   0.02692999
H    5.51922798   2.29554915   0.89438969
H    5.54003763   2.28296900  -0.88166964
H    5.64227772  -1.30928946   0.00420000

