%chk=mol_2625.chk
# wB97XD/Def2SVP opt freq pop=full gfinput

C 6 H 10 O 1

1 2
C    2.55926895  -0.58533978   1.43715954
C    2.58850884   0.01078000   0.03768999
C    3.13400888   1.39861941   0.01846999
C    4.25788832   1.82630932  -0.55703980
C    4.40651846   3.28532887  -0.35486984
O    3.24076891   3.70193863   0.37603986
C    2.42981911   2.54497910   0.65070975
H    2.18872929  -1.61484945   1.39992940
H    1.89943933  -0.01680999   2.10057926
H    3.56000876  -0.60192978   1.88168931
H    1.57555938   0.01380999  -0.38132983
H    3.19176888  -0.63817978  -0.60866976
H    4.96536779   1.21634960  -1.09739959
H    5.29694796   3.52593875   0.23278990
H    4.43819857   3.82692862  -1.30437958
H    1.43760943   2.70600891   0.21954991
H    2.34503913   2.43321896   1.73528945

