%chk=mol_4778.chk
# wB97XD/Def2SVP opt freq pop=full gfinput

C 4 H 8 N 2 O 1

1 2
C    1.34099948  -0.79889971  -0.06328998
C    2.83881903  -0.68042976   0.07670997
N    3.54885888  -1.72551942   0.35537988
N    3.40628886   0.54761976  -0.07612997
C    4.84102821   0.75092971  -0.14448994
C    5.14222813   2.14419937  -0.65554976
O    4.28092861   2.96462893  -0.97081959
H    0.93287963   0.06183998  -0.59951979
H    0.89290971  -0.84659970   0.93271965
H    1.08949959  -1.70983934  -0.61328971
H    2.94546890  -2.54987907   0.44373983
H    2.84672880   1.33398950  -0.40238985
H    5.30633831   0.03983998  -0.83505970
H    5.29073811   0.64497977   0.84748966
H    6.21411753   2.38964915  -0.74087971

