%chk=mol_0174.chk
# wB97XD/Def2SVP opt freq pop=full gfinput

C 4 H 7 N 1

1 2
C    0.99235964  -0.04100998  -0.01330000
C    2.51999903   0.00000000   0.00000000
N    3.05214906  -0.70444971  -1.16318953
C    3.00201893   1.36116946   0.00000000
C    3.39929867   2.48306894   0.00000000
H    0.58288974   0.47090980   0.86413968
H    0.62741977  -1.07316971   0.00299000
H    0.58112979   0.45019981  -0.90233970
H    2.87404895  -0.51451981   0.90033966
H    2.74532914  -0.22571991  -2.00866914
H    2.65203881  -1.63905931  -1.20476949
H    3.76342869   3.48425865  -0.00308000

