%chk=mol_4634.chk
# wB97XD/Def2SVP opt freq pop=full gfinput

C 4 H 10 N 2 O 1

1 2
C    1.47354949  -0.30894989   0.35368985
C    2.96894884  -0.19191992   0.10840996
C    3.41230869   1.24951959  -0.07047997
O    2.62121892   2.19454932  -0.04737998
N    4.78234816   1.44776940  -0.26924989
C    5.80492783   0.41543984  -0.17692994
N    5.24465799   2.79176879  -0.35032988
H    1.18715954  -1.35923946   0.47172982
H    0.90299964   0.10856996  -0.48290983
H    1.18043959   0.22941992   1.26161945
H    3.22422886  -0.75293970  -0.79645973
H    3.50360870  -0.62682980   0.95934963
H    5.51591778  -0.44519985  -0.78469968
H    5.89472771   0.10354996   0.86720967
H    6.76629782   0.79616970  -0.53456980
H    4.64353800   3.34083867   0.27806991
H    4.97609806   3.13598871  -1.27706945

