%chk=mol_1587.chk
# wB97XD/Def2SVP opt pop=full gfinput

C 7 H 8

1 2
C    3.584527  -1.213148  -2.113338
C    3.895803   0.633739  -0.411261
C    6.081233   2.329182  -0.245003
C    6.571579   4.169794  -2.357396
C    5.624127   5.123765   0.148060
C    7.325599   6.508482   1.739965
C    8.744840   7.670512   3.073469
H    1.910627  -2.397193  -2.089187
H    4.993469  -1.576069  -3.558997
H    2.427183   0.894370   1.006865
H    7.721100   1.496021   0.667565
H    5.278080   4.230530  -3.945125
H    8.522835   4.522700  -2.874651
H    3.674988   5.770940   0.191713
H   10.005533   8.702454   4.257213

