%chk=mol_4402.chk
# wB97XD/Def2SVP opt pop=full gfinput

C 5 H 11 N 1 O 1

1 2
C    2.594046  -1.144550   0.929367
C    5.430789  -1.032490   0.678620
C    6.840979  -3.062963   1.270520
C    6.450013   1.458850  -0.296838
O    5.639415   3.414168   1.389950
C    9.353520   1.690587  -0.598911
N   10.058370   4.288167  -1.330707
H    1.695651  -0.703677  -0.882086
H    1.930336   0.212008   2.343279
H    1.934777  -3.019442   1.509022
H    5.974199  -4.793272   1.958040
H    8.884170  -3.080443   1.121137
H    5.572803   1.844770  -2.136222
H    6.836991   4.793668   1.093074
H   10.059958   0.351546  -2.009818
H   10.286611   1.298544   1.207894
H    9.395926   4.641772  -3.108713
H   11.980769   4.389701  -1.461155

