%chk=mol_7006.chk
# wB97XD/Def2SVP opt pop=full gfinput

C 6 H 11 N 1

1 2
C    1.790591   0.273840  -1.640452
C    4.563084   0.144432  -1.129773
C    6.074392   2.173790  -0.940384
C    8.798149   2.106194  -0.424678
C   10.554120   1.019602  -2.383190
C   10.518064   3.815716  -1.929562
N   12.683785   5.020379  -0.706890
H    1.349907  -0.731400  -3.392455
H    1.118548   2.221921  -1.827611
H    0.747972  -0.621795  -0.095922
H    5.367521  -1.733219  -0.909620
H    5.244387   4.044430  -1.151788
H    9.268483   1.766573   1.542054
H    9.773286   0.339376  -4.152617
H   12.164620  -0.063400  -1.731046
H    9.668671   4.952840  -3.418968
H   13.453678   3.883992   0.643697
H   12.134177   6.626627   0.204260

