%chk=mol_6488.chk
# wB97XD/Def2SVP opt freq pop=full gfinput

C 5 H 8 N 2

1 2
C    0.97302967   0.05067998   0.03599999
C    2.44651914  -0.02490999   0.02580999
C    3.28989887  -1.06536961  -0.06430998
C    4.74119854  -0.68105972  -0.05613998
N    4.65306807   0.75094968   0.14814994
C    3.34622860   1.13891959   0.09629996
N    2.94611883   2.35723901   0.07545997
H    0.52491981  -0.94458967  -0.04468998
H    0.61143976   0.65138972  -0.80404973
H    0.61795974   0.50547981   0.96573961
H    2.96926904  -2.09421921  -0.14282995
H    5.27963781  -1.16003966   0.76598972
H    5.21765804  -0.91947967  -1.01135957
H    5.33058834   1.33237946  -0.32414988
H    3.76122856   2.96776891   0.15610994

