%chk=mol_5823.chk
# wB97XD/Def2SVP opt freq pop=full gfinput

C 4 H 6 N 2 O 1

1 2
N    0.98378962  -0.06890997   0.16011994
C    2.34463906  -0.01157000   0.04159999
N    2.99570870  -1.13061953  -0.03362999
C    3.12271881   1.26925957   0.00252000
C    2.50569916   2.46199918  -0.03685999
C    4.61390829   1.25117946  -0.01836999
O    5.30611801   2.26672912  -0.01978999
H    0.52541977   0.73110968   0.58033979
H    0.59230977  -0.94400966   0.48506981
H    2.34005904  -1.91471922  -0.03002999
H    1.42969942   2.57328916  -0.05766998
H    3.08130884   3.38435864  -0.07350997
H    5.07407808   0.25005990  -0.03043999

