%chk=mol_4526.chk
# wB97XD/Def2SVP opt freq pop=full gfinput

C 5 H 11 N 1 O 1

1 2
C    2.11468935  -0.72077972   0.56757981
C    2.11206913  -1.13663960  -0.90171963
C    2.62241912  -2.58827901  -1.03409958
N    2.73615909  -2.99788904  -2.43954897
O    0.76367974  -1.10967958  -1.40065944
C    0.25224990   0.05330998  -1.89597929
C    0.81984967   1.25901961  -2.00141931
H    1.75098932   0.30465987   0.68775976
H    3.12108898  -0.77929968   0.99387962
H    1.44706941  -1.36039948   1.15597963
H    2.77299905  -0.48817980  -1.48906946
H    1.92602921  -3.27268887  -0.53531981
H    3.60440874  -2.69282889  -0.56079978
H    1.84839928  -2.78476882  -2.90068889
H    2.84653878  -4.00946856  -2.48695898
H   -0.76603973  -0.12302995  -2.22888923
H    1.83049929   1.47374940  -1.67945933
H    0.25848991   2.08418918  -2.43022919

