%chk=mol_0323.chk
# wB97XD/Def2SVP opt freq pop=full gfinput

C 5 H 9 N 1

1 2
C    0.98915964   0.09913996  -0.34318990
C    2.46282911   0.01279000  -0.04112998
C    3.05001879  -1.18538952   0.12494995
C    3.18386889   1.29580951   0.00391000
C    2.88455892   2.27604914   1.11119962
N    4.12719870   1.51969945   1.09973967
H    0.82476974   0.64939976  -1.27558959
H    0.46305981   0.61930972   0.46370983
H    0.53101981  -0.88917965  -0.45646983
H    2.49125886  -2.11355925   0.07315997
H    4.11353874  -1.25665951   0.33482987
H    3.47486877   1.69286931  -0.96349961
H    2.17711926   2.00264931   1.88418937
H    2.95505905   3.33488870   0.89775968
H    4.90836859   2.09320927   0.78092968

