%chk=mol_6526.chk
# wB97XD/Def2SVP opt freq pop=full gfinput

C 4 H 2 N 2 S 1

1 2
C    0.95459962  -0.02639999  -0.00227000
C    2.15374923   0.02536999  -0.00011000
C    3.57760859   0.08403997   0.00248000
C    4.32639790   1.24203956   0.00041000
S    5.97469759   0.76165968   0.00504000
N    5.59779787  -0.87137967   0.00931000
N    4.29324818  -1.09786963   0.00746000
H   -0.10933996  -0.08258997  -0.00415000
H    4.01164865   2.27413893  -0.00334000

