%chk=mol_6680.chk
# wB97XD/Def2SVP opt pop=full gfinput

C 5 H 6 O 1 S 1

1 2
O    3.271645  -0.627521  -2.201304
C    4.794443  -0.277525  -0.015156
C    5.632631   2.414579   0.010223
C    4.223500   4.567090  -0.443575
C    5.676302   6.820759  -0.217734
C    8.150048   6.319149   0.413094
S    8.703549   3.154180   0.735803
H    2.865940  -2.415524  -2.273019
H    6.384855  -1.596138  -0.106486
H    3.658756  -0.694739   1.661164
H    2.236302   4.510247  -0.938136
H    4.946301   8.709237  -0.509470
H    9.664872   7.661498   0.700295

