%chk=mol_4022.chk
# wB97XD/Def2SVP opt pop=full gfinput

C 4 H 6 N 2 O 1

1 2
C    1.925593   0.013757  -0.259667
C    4.755477   0.024151   0.158227
C    5.992057  -2.218482  -1.066373
N    7.637196  -1.651526  -2.787081
N    7.677504   0.931729  -2.899993
C    6.040132   2.136770  -1.244744
O    5.706520   4.396712  -0.999249
H    1.057018   1.707934   0.551158
H    1.057755  -1.647161   0.617487
H    1.454484  -0.025625  -2.276213
H    5.252645   0.073000   2.163755
H    5.522346  -4.158323  -0.492425
H    8.822659   1.848719  -4.130526

