%chk=mol_5764.chk
# wB97XD/Def2SVP opt pop=full gfinput

C 4 H 7 N 1 O 2

1 2
N    3.461204  -1.084986  -2.935633
C    5.563543  -0.880461  -1.178206
C    5.347774   1.525841   0.273065
C    7.142787   3.304961   0.340529
O    6.832645   5.512123   1.750680
C    8.779139   7.205488   1.633819
O   10.755962   7.025908   0.452797
H    3.619355  -2.736494  -3.911487
H    3.607430   0.318098  -4.247386
H    7.352471  -0.993051  -2.214079
H    5.505188  -2.472272   0.142769
H    3.618429   1.802175   1.347356
H    8.916937   3.160737  -0.670191
H    8.282405   8.839799   2.820662

