%chk=mol_5069.chk
# wB97XD/Def2SVP opt freq pop=full gfinput

C 5 H 9 N 1 O 1

1 2
C    1.70122933  -0.37129986   1.52076948
N    3.06584883   0.09882996   1.33773947
C    3.11839890   1.44001949   0.73778975
C    2.91849899   2.49860907   1.78403926
C    2.14745903   3.58333850   1.63201940
C    4.50145864   1.65837932   0.11071996
O    5.25075817   0.75158972  -0.25129992
H    1.72064936  -1.38686955   1.92622924
H    1.15216947  -0.39958987   0.57465976
H    1.15480959   0.25340989   2.23424935
H    3.57301879  -0.54135984   0.71908975
H    2.39846921   1.54067945  -0.08442997
H    3.43791890   2.35046935   2.72990918
H    1.60261941   3.78013849   0.71431971
H    2.04302931   4.30480814   2.43932915
H    4.75402832   2.70842886  -0.12084996

