%chk=mol_3205.chk
# wB97XD/Def2SVP opt freq pop=full gfinput

C 6 H 12 O 1

1 2
C    1.43438947   0.10651996  -0.46574983
C    2.94365883   0.22311991  -0.36796984
O    3.28129888   1.61004949  -0.30950987
C    4.62974834   1.82826936  -0.22659990
C    5.16360807   3.05660892  -0.14447995
C    4.33992815   4.31288815  -0.13117994
C    6.64916754   3.25881886  -0.05941998
H    1.12605953  -0.94170970  -0.51104981
H    1.06517959   0.62257975  -1.35824943
H    0.95433968   0.57964975   0.39726987
H    3.40544891  -0.23934990  -1.24856949
H    3.29430866  -0.28653991   0.53743976
H    5.23939848   0.93310964  -0.23514992
H    3.26450872   4.11618853  -0.17967993
H    4.60008812   4.94351816  -0.98764962
H    4.53034830   4.87928820   0.78639972
H    7.19666719   2.31034899  -0.07217997
H    6.90906763   3.78098869   0.86715966
H    6.99988699   3.85737872  -0.90647966

