%chk=mol_6213.chk
# wB97XD/Def2SVP opt freq pop=full gfinput

C 5 H 5 N 1 O 1

1 2
O    0.93636966   0.07759997   0.01412999
C    2.35803914   0.01749999   0.01570999
C    2.92738891   1.43281937   0.00000000
C    4.37138844   1.43281937   0.00000000
C    5.56154823   1.43281937   0.00000000
C    7.09747744   1.43236947   0.00001000
N    8.25907707   1.42641938   0.00007000
H    0.61089981  -0.83947968   0.02401999
H    2.68220878  -0.54509979  -0.86670971
H    2.68110895  -0.52490979   0.91106963
H    2.54321909   1.98493922   0.86623967
H    2.54328895   1.96553934  -0.87833971

