%chk=mol_6039.chk
# wB97XD/Def2SVP opt pop=full gfinput

C 5 H 7 N 1 O 1

1 2
O    2.651947   0.545526   1.357768
C    4.621892  -0.029366   0.308006
C    5.530019  -2.668236  -0.378947
N    7.929555  -2.349100  -1.808090
C    8.675902   0.326790  -1.615111
C    7.290847   2.314140  -3.084883
C    6.588511   1.826949  -0.374128
H    4.123893  -3.628350  -1.544624
H    5.877521  -3.717734   1.367822
H    9.267217  -3.525700  -1.067695
H   10.616632   0.713183  -1.078353
H    8.286015   4.053387  -3.513379
H    5.996158   1.722296  -4.558681
H    7.094939   3.210210   1.043375

