%chk=mol_1265.chk
# wB97XD/Def2SVP opt pop=full gfinput

C 7 H 8

1 2
C    1.922305   0.065309  -0.521772
C    4.390646   0.014362   0.009392
C    6.026034  -2.290102   0.404590
C    8.564333  -1.211239   1.138409
C   10.625722  -2.490886   1.833261
C    8.345144   1.504071   0.988969
C    5.993909   2.194633   0.353190
H    0.853722  -1.672143  -0.727545
H    0.908410   1.832864  -0.748577
H    6.184261  -3.371952  -1.354745
H    5.265684  -3.491515   1.907943
H   10.616085  -4.540407   1.914406
H   12.363250  -1.530848   2.348854
H    9.879451   2.796209   1.367122
H    5.360832   4.123269   0.143676

