%chk=mol_5186.chk
# wB97XD/Def2SVP opt pop=full gfinput

C 4 H 8 N 2 O 1

1 2
C    4.983699  -0.978084  -3.113400
N    4.145076   1.397717  -2.033081
C    5.623126   3.116272  -0.758309
N    4.268759   5.013614   0.373882
C    8.157759   2.944987  -0.669284
C    9.814010   4.652355   0.782592
O   12.119853   4.480692   0.667281
H    3.376978  -1.942676  -3.987889
H    5.765309  -2.219767  -1.655570
H    6.404244  -0.663936  -4.583644
H    2.417432   1.256706  -1.201639
H    2.611620   5.282371  -0.562590
H    5.211203   6.680692   0.486434
H    9.173922   1.452897  -1.632988
H    8.885303   6.072824   1.985214

