%chk=mol_5203.chk
# wB97XD/Def2SVP opt freq pop=full gfinput

C 4 H 8 N 2 O 1

1 2
C    1.09980965   0.05439998   0.14408995
N    2.51138902   0.00613000  -0.20910993
C    3.02358890  -1.25734949  -0.50269979
O    2.40238905  -2.31466913  -0.49012983
C    3.26377869   1.17148948  -0.23782991
C    4.72652817   1.09782958  -0.60911977
N    2.78282905   2.33676910   0.03826999
H    0.57928979   0.70946974  -0.56204981
H    1.00039959   0.47156981   1.15144956
H    0.62177974  -0.92807966   0.12491995
H    4.09025860  -1.25568950  -0.76436973
H    4.83617830   0.69418973  -1.61961937
H    5.26224804   0.46604982   0.10496996
H    5.17545795   2.09579921  -0.58804983
H    1.79395938   2.31350899   0.27991989

