%chk=mol_2987.chk
# wB97XD/Def2SVP opt pop=full gfinput

C 7 H 10

1 2
C    1.996892  -0.359747   0.235498
C    4.854461  -0.082052  -0.129597
C    5.717517  -1.646877  -2.410629
C    5.590320   2.700627  -0.229772
C    5.928619   4.018635  -2.373364
C    6.000145   3.990497   2.112222
C    6.343319   5.064523   4.080335
H    1.358562   0.618659   1.944717
H    1.473835  -2.353616   0.426360
H    0.951118   0.420370  -1.372792
H    5.788307  -0.919087   1.526313
H    4.711541  -1.115732  -4.139804
H    5.356618  -3.659058  -2.080400
H    7.748727  -1.423474  -2.741596
H    5.657519   3.186003  -4.224955
H    6.473559   5.998463  -2.335815
H    6.649530   6.019269   5.825780

