%chk=mol_0711.chk
# wB97XD/Def2SVP opt freq pop=full gfinput

C 5 H 12 O 1

1 2
C    0.95964968  -0.05122998   0.02699999
C    2.47861886   0.02960999   0.07188997
C    3.02913880   1.46725953   0.06667998
C    2.55189896   2.27693915   1.27703953
C    4.56331873   1.42601943   0.00948000
O    5.11298800   2.73637891  -0.05272998
H    0.64328980  -1.09404957  -0.07733997
H    0.55985981   0.51087981  -0.82241970
H    0.50922984   0.33669987   0.94545960
H    2.87453890  -0.50631982  -0.80035967
H    2.83775902  -0.50620979   0.95942962
H    2.66755915   1.98434937  -0.83250970
H    2.84078908   1.79179943   2.21483922
H    1.46344936   2.39278913   1.27284944
H    2.97728896   3.28530884   1.27163959
H    4.90627813   0.87631965  -0.87316966
H    4.97576809   0.93091965   0.89448965
H    4.72838831   3.17841887  -0.82912970

