%chk=mol_5459.chk
# wB97XD/Def2SVP opt freq pop=full gfinput

C 6 H 11 N 1

1 2
C    0.73873973   0.34865984  -0.60476977
C    2.13184929   0.15803994  -0.04590998
C    3.00950885  -0.88480967  -0.71772969
C    3.26350880   0.56535977  -0.97769964
N    2.39093924   0.46575981   1.39086950
C    1.23570955   0.49850979   2.27535915
C    2.11728907  -0.71157968   2.22068930
H    0.72184974   0.24849992  -1.69590938
H    0.35624987   1.34524953  -0.36260986
H    0.05458998  -0.40642983  -0.20544992
H    2.58555889  -1.47910941  -1.51858950
H    3.73723865  -1.41908944  -0.11700996
H    4.15048838   1.01217961  -0.54075974
H    3.01825881   0.96075964  -1.95622921
H    0.23009992   0.41956982   1.88738930
H    1.32790959   1.15374959   3.13410902
H    2.81149888  -0.87724972   3.03467894
H    1.72551942  -1.60583937   1.75327933

