%chk=mol_4429.chk
# wB97XD/Def2SVP opt pop=full gfinput

C 5 H 11 N 1 O 1

1 2
C    1.577732  -1.699147  -0.558792
C    4.463968  -1.474440  -0.432426
C    5.464974  -3.239425   1.635142
C    5.583366  -2.141192  -3.019820
O    4.970660   1.124803   0.192185
N    7.580693   1.570665   0.371256
C    7.929461   3.917081   0.921827
H    0.799449  -0.404817  -1.976786
H    0.717888  -1.168815   1.249751
H    0.976856  -3.622624  -1.029428
H    4.756989  -2.668085   3.495748
H    7.531749  -3.181902   1.745653
H    4.905011  -5.202151   1.291288
H    4.951649  -0.796387  -4.462928
H    5.037632  -4.047907  -3.612249
H    7.652030  -2.054038  -2.996047
H    9.861007   4.653942   1.148538
H    6.362462   5.266553   1.185406

