%chk=mol_1327.chk
# wB97XD/Def2SVP opt freq pop=full gfinput

C 5 H 14 N 2

1 2
C    2.85112906  -0.75592971  -1.06671953
C    2.47439885   0.02560999   0.18514992
C    3.07561874   1.45114946   0.24397990
C    2.55043888   2.21241903   1.48316944
N    1.09346962   2.35921907   1.47148943
C    4.61904860   1.40088940   0.25734991
N    5.22224760   2.73215890   0.24063991
H    2.27950907  -1.68889928  -1.11076951
H    3.91125846  -1.02457964  -1.07221961
H    2.63028908  -0.18109992  -1.97151923
H    2.78067899  -0.54580981   1.06988955
H    1.38022959   0.08604997   0.21334991
H    2.75543904   1.99329925  -0.65721971
H    2.98657894   3.21584892   1.53237939
H    2.84283900   1.68445945   2.39798903
H    0.81924969   2.90000892   0.65233976
H    0.81209970   2.91139889   2.28087902
H    4.99272823   0.86061966  -0.61763972
H    4.96847820   0.86453968   1.14669967
H    4.96245813   3.21197891  -0.62081975
H    6.23753738   2.63960910   0.21589993

