%chk=mol_6242.chk
# wB97XD/Def2SVP opt freq pop=full gfinput

C 5 H 11 N 1 O 1

1 2
O    0.82949966   2.57766914   0.56417978
C    1.90928936   1.77503932   1.04500961
C    3.18166876   2.61948895   1.15302956
N    3.59231853   3.08562875  -0.17852993
C    4.76580811   3.95911860  -0.12682995
C    6.12867785   3.35801864  -0.31536987
C    5.53005791   4.21122837  -1.39465952
H    0.07457998   1.97793925   0.43469983
H    2.05331922   0.93131965   0.36085984
H    1.63228941   1.38602948   2.02997923
H    3.98034859   2.01996922   1.60364950
H    2.98449898   3.48410892   1.79683936
H    2.78918910   3.56893849  -0.59047973
H    4.68634796   4.80609798   0.55285978
H    6.20108747   2.29162908  -0.49745983
H    6.94795752   3.76752853   0.26377991
H    5.94271755   5.20078802  -1.54830945
H    5.19988823   3.72058868  -2.30281925

