%chk=mol_3964.chk
# wB97XD/Def2SVP opt pop=full gfinput

C 4 H 7 N 1 O 2

1 2
C    1.943735  -0.043539   0.073265
C    4.810204   0.008050   0.114461
C    5.863745   2.240497   1.573443
C    8.286695   1.140412   2.482363
O   10.166878   2.318033   3.106956
N    7.980068  -1.428709   2.601529
O    5.734582  -2.209506   1.379802
H    1.271049  -1.707330  -0.955956
H    1.177715   1.649693  -0.831385
H    1.173822  -0.183681   1.989201
H    5.549880  -0.020126  -1.822754
H    4.713147   2.749344   3.215123
H    6.160961   3.886278   0.362884
H    9.419208  -2.662171   2.845814

