%chk=mol_6742.chk
# wB97XD/Def2SVP opt freq pop=full gfinput

C 7 H 10

1 2
C    0.42022982   1.43547952   0.76756966
C    1.38067949   0.47264981   0.01620999
C    0.41475987  -0.36582986  -0.84699965
C   -0.63343978   0.68594974  -1.22279954
C   -0.96633965   1.01663959   0.23503992
C   -1.25080943  -0.38058984   0.73702973
C   -0.42142981  -1.21139944   0.08648997
H    0.64608979   2.47395921   0.50043982
H    0.50708985   1.32965946   1.85427940
H    1.96781921  -0.13818994   0.71025974
H    2.07152915   1.04645967  -0.61152977
H    0.86077964  -0.90415967  -1.68368948
H   -0.21621992   1.53523946  -1.77563930
H   -1.48316944   0.27551991  -1.78289938
H   -1.77451932   1.73375940   0.38106984
H   -1.95108926  -0.64371973   1.51477933
H   -0.32182989  -2.27535915   0.23698992

