%chk=mol_3531.chk
# wB97XD/Def2SVP opt freq pop=full gfinput

C 5 H 6 O 2

1 2
O    1.36805952   0.02822999   1.16367960
C    2.33284926   0.01142000   0.40944985
C    2.99502897  -1.25774956  -0.10093997
C    4.04976845  -0.76374972  -1.04281962
O    5.10769796  -0.01159000  -0.43999982
C    4.05412865   0.72754973  -1.06773961
C    3.00389886   1.25989962  -0.14381994
H    2.25484896  -1.86594927  -0.62770981
H    3.43412876  -1.81099939   0.73363972
H    4.24523830  -1.35534954  -1.92117929
H    4.25408840   1.28755951  -1.96560931
H    3.44622850   1.83783937   0.67231977
H    2.26710916   1.85478938  -0.69043970

