%chk=mol_0742.chk
# wB97XD/Def2SVP opt freq pop=full gfinput

C 5 H 10 O 1

1 2
C    1.03162956  -0.13805994   0.17865993
C    2.51819921   0.04356998  -0.12814994
C    2.85691905  -0.55865979  -1.50201952
O    4.26599884  -0.59627980  -1.71453929
C    2.87057900   1.51574945  -0.07617997
C    3.77591848   2.03954911   0.76072973
H    0.77768970   0.28133988   1.15848958
H    0.76639968  -1.20071959   0.19308992
H    0.40303987   0.35475987  -0.57199979
H    3.09888887  -0.49184981   0.63468975
H    2.39870906   0.00834000  -2.32012916
H    2.49540901  -1.59039938  -1.56625938
H    4.60070848   0.30740988  -1.57534933
H    2.34598899   2.17787910  -0.76307970
H    4.32375813   1.42385948   1.46845949
H    3.98573852   3.10508895   0.75878972

