%chk=mol_1790.chk
# wB97XD/Def2SVP opt pop=full gfinput

C 5 H 10 N 2

1 2
C    2.197922  -0.602218   0.103500
N    4.925117  -0.295232  -0.159228
C    5.627944   2.375197  -0.056711
C    8.506337   2.674133  -0.161779
C    9.906606   1.409547   2.031286
C    9.323701   2.604950   4.468428
N    8.881335   3.578121   6.382286
H    1.724507  -2.614568   0.047489
H    1.180058   0.335918  -1.434227
H    1.530168   0.143676   1.914047
H    5.470398  -1.044735  -1.850458
H    4.898170   3.252748   1.672068
H    4.794840   3.385123  -1.663413
H    8.957755   4.698426  -0.200179
H    9.209902   1.881109  -1.944698
H   11.943919   1.565071   1.685428
H    9.481077  -0.614482   2.111013

