%chk=mol_2252.chk
# wB97XD/Def2SVP opt freq pop=full gfinput

C 6 H 10 O 1

1 2
C    1.02734959  -0.05733998  -0.05120998
C    2.52095914   0.06259997  -0.00794000
C    3.42860889  -0.63112974  -1.09031963
C    4.48961830  -0.26656991   0.01112000
C    3.38190889  -0.79437971   0.99256963
O    4.50959826   1.17955959   0.12571995
C    3.10506892   1.48685944   0.11605995
H    0.57178974   0.35551986   0.85505968
H    0.71638972  -1.10425961  -0.13213995
H    0.61318976   0.47974983  -0.91103971
H    3.53044868  -0.10776996  -2.04485917
H    3.25440884  -1.69627941  -1.27700949
H    5.46997786  -0.74186975  -0.00405000
H    3.20314884  -1.87502933   1.00380969
H    3.43891883  -0.42616984   2.02164936
H    2.86962891   2.11811924  -0.74566972
H    2.82730889   1.97869921   1.05286956

