%chk=mol_6453.chk
# wB97XD/Def2SVP opt freq pop=full gfinput

C 6 H 8 S 1

1 2
C    0.94251966   0.04649998  -0.01060000
C    2.43711901   0.05071998  -0.00170000
C    3.20290875   1.20236957   0.00855000
S    4.87882805   0.88861966   0.01675999
C    4.61239862  -0.79541969   0.00664000
C    3.26999855  -1.13116968  -0.00279000
C    2.78103900  -2.54341912  -0.01320000
H    0.54011977   1.06436956  -0.00513000
H    0.55804974  -0.47284982   0.87266970
H    0.56877977  -0.45930982  -0.90624970
H    2.85327888   2.22565913   0.01159000
H    5.45803785  -1.46922946   0.00803000
H    1.68926930  -2.60108900  -0.00732000
H    3.15050864  -3.07763863   0.86775970
H    3.14055872  -3.06069899  -0.90823960

