%chk=mol_5585.chk
# wB97XD/Def2SVP opt freq pop=full gfinput

C 4 H 10 N 2 O 1

1 2
N    0.94162959  -0.08869997   0.09265997
C    2.40913892  -0.04688998  -0.11359996
C    2.79563880  -0.03112999  -1.58268940
O    2.04706931   0.98168957  -2.25696921
C    3.03240895   1.02951968   0.80554968
N    3.94646859   0.00842000   1.36253953
C    3.10457897  -1.07080960   0.80986965
H    0.66845977   0.01712999   1.07258952
H    0.51674980  -0.96780962  -0.20615992
H    2.56322908  -0.98931968  -2.06008911
H    3.86166859   0.17098993  -1.72815943
H    1.17786956   0.99521959  -1.80677927
H    2.37297916   1.46414948   1.56667936
H    3.54311872   1.85347939   0.29550990
H    4.88241816   0.04666998   0.95664966
H    3.66858864  -1.86109924   0.30259988
H    2.47211909  -1.54476941   1.57073939

