%chk=mol_5921.chk
# wB97XD/Def2SVP opt pop=full gfinput

C 4 H 8 N 2 O 1

1 2
N    1.827006   3.724216  -2.592837
N    4.424737   3.132486  -2.461312
C    5.633462   3.150759  -0.128275
O    4.528540   3.560471   1.875402
C    8.463838   2.675342  -0.286804
C    9.841392   5.150940  -0.391721
C   11.344310   5.872324  -2.296565
H    1.521815   5.209918  -1.378121
H    0.867441   2.271394  -1.740664
H    5.463879   3.174268  -4.080901
H    8.885964   1.484021  -1.927917
H    9.038731   1.613996   1.395619
H    9.577321   6.416811   1.210237
H   11.684630   4.679964  -3.930838
H   12.288076   7.694908  -2.247924

