%chk=mol_6308.chk
# wB97XD/Def2SVP opt freq pop=full gfinput

C 4 H 6 N 2 O 1

1 2
O    4.09977865   2.30780911  -3.13668871
C    3.07173896   2.50395918  -2.50204921
N    2.94031882   2.39618921  -1.13142955
N    4.02435827   1.93040919  -0.35313988
C    4.88952827   3.04135871   0.06488997
C    5.97154808   2.53571892   0.92060965
C    6.85806751   2.13033915   1.62034941
H    2.12132931   2.79449892  -2.97888899
H    2.02433920   2.47261906  -0.69643974
H    4.59556866   1.31933951  -0.95066965
H    4.30289841   3.78102851   0.62167978
H    5.31679773   3.54440856  -0.81062973
H    7.64425707   1.76931930   2.24281907

