%chk=mol_6987.chk
# wB97XD/Def2SVP opt freq pop=full gfinput

C 6 H 9 N 1

1 2
C    0.82997972   0.41971985  -0.13387994
C    2.12641931   0.22581992   0.15204994
C    3.26377869   1.20386958   0.04203999
N    3.92563868   1.33027959   1.35939944
C    3.67111850   2.70101881   1.83890939
C    3.11687875   3.43703866   0.67627978
C    2.88440895   2.59588909  -0.33126989
H    0.11203996  -0.38381985  -0.00235000
H    0.44932985   1.37237954  -0.48555982
H    2.41801906  -0.76136971   0.50787979
H    3.98623848   0.81578970  -0.68596971
H    4.92714834   1.23870957   1.20348954
H    4.60027838   3.15973878   2.19127917
H    2.95275903   2.68482900   2.66453886
H    2.90993881   4.49663830   0.67033976
H    2.46753907   2.87030888  -1.28966951

