%chk=mol_0277.chk
# wB97XD/Def2SVP opt freq pop=full gfinput

C 5 H 11 N 1

1 2
C    0.93935966   0.01303000   0.01380999
C    2.45355916   0.00438000   0.01361000
C    3.15829897   1.00396967   0.95496958
N    4.15966845  -0.04589998   1.26098955
C    3.15107870  -1.07412970   0.88269967
C    3.76169872  -2.25666904   0.15541995
H    0.55075979  -0.84173965  -0.54812980
H    0.56020981   0.92552966  -0.45605984
H    0.53348976  -0.03775999   1.02979958
H    2.84732890   0.05505998  -1.01169956
H    2.57487893   1.31062949   1.83133924
H    3.56514883   1.89860928   0.47524983
H    4.96659851  -0.01696999   0.63646978
H    2.55301905  -1.40279949   1.74391937
H    4.38050842  -1.94385922  -0.69219971
H    2.97445893  -2.91200900  -0.23023991
H    4.38570881  -2.84871912   0.83214968

