%chk=mol_5669.chk
# wB97XD/Def2SVP opt pop=full gfinput

C 4 H 8 N 2 O 1

1 2
N    4.534530  -0.637839   2.695449
C    4.774507   0.138328   0.051401
C    5.693632   2.824914  -0.119657
N    7.583358   3.498185  -1.523762
O    7.861147   6.143462  -1.220253
C    5.543039   7.083638  -0.195265
C    4.464327   4.915291   1.291798
H    4.217623  -2.538091   2.759303
H    2.982876   0.181508   3.486866
H    2.946291  -0.007408  -0.904007
H    6.120407  -1.099046  -0.916536
H    4.309804   7.632868  -1.765288
H    5.912311   8.742459   0.980371
H    2.404922   4.835299   1.232498
H    5.135368   4.901439   3.246115

