%chk=mol_0057.chk
# wB97XD/Def2SVP opt pop=full gfinput

C 4 H 8

1 2
C    1.802270  -0.015061   0.015855
C    4.624746  -0.001191   0.024491
C    5.999465   2.128323  -0.022885
C    8.822262   2.187112  -0.017556
H    1.108778  -1.961592  -0.087305
H    1.059872   1.005844  -1.622538
H    1.058152   0.831820   1.749527
H    5.561634  -1.830181   0.070827
H    5.050047   3.951587  -0.063703
H    9.644104   0.288656   0.004309
H    9.502186   3.204541   1.648654
H    9.508289   3.167105  -1.704363

