%chk=mol_6037.chk
# wB97XD/Def2SVP opt pop=full gfinput

C 6 H 9 N 1

1 2
C    1.925707   0.004951  -0.161439
C    4.742551   0.047697  -0.067879
C    6.360232  -1.397604  -1.950197
C    5.207065  -2.854034  -3.921068
C    4.249276  -4.078407  -5.575977
N    6.115721   1.357541  -2.062258
C    8.372980   2.674246  -1.186294
H    1.156531   1.439782   1.115619
H    1.219176  -1.838458   0.456577
H    1.182458   0.385995  -2.055058
H    5.428201   0.162082   1.859585
H    8.134780  -2.150376  -1.243874
H    3.395384  -5.145743  -7.051816
H    7.929536   4.674313  -0.897790
H    9.854487   2.565889  -2.627532
H    9.156498   1.942620   0.587459

