%chk=mol_2158.chk
# wB97XD/Def2SVP opt freq pop=full gfinput

C 5 H 6 O 2

1 2
C   -1.29575956   0.64978975   0.06654997
C   -1.01914966  -0.78880972  -0.15203995
O   -0.30382991  -1.46313941   0.88766962
C    0.45105982  -1.09717965  -0.27537990
C    1.14599955   0.26883990  -0.26910990
O    0.99314958   1.08726954   0.89950967
C    0.03101999   1.27530956  -0.14242995
H   -2.01441932   1.01891959  -0.67222971
H   -1.68977928   0.84593970   1.06858957
H   -1.75745940  -1.33675957  -0.71402973
H    0.77573973  -1.87053931  -0.95501965
H    1.96553934   0.46796983  -0.94457960
H    0.04088999   2.19901919  -0.69815969

