%chk=mol_5118.chk
# wB97XD/Def2SVP opt pop=full gfinput

C 4 H 10 N 2 O 1

1 2
C    1.579698  -0.528103  -0.371482
N    4.230965  -0.213407   0.331666
C    5.654835  -2.562563   0.558943
C    5.425990   2.105968   0.046449
N    7.851377   2.453507   0.129503
C    3.855438   4.535551  -0.380931
O    5.447230   6.678557  -0.664503
H    0.403173   0.958526   0.453856
H    0.814491  -2.327330   0.308006
H    1.378631  -0.478800  -2.429640
H    4.434658  -4.160723   1.050310
H    7.068993  -2.420777   2.062485
H    6.605916  -3.003606  -1.224883
H    8.758559   0.779663   0.422354
H    2.622108   4.840590   1.249619
H    2.714592   4.334956  -2.092059
H    7.152500   5.981928  -0.415759

