%chk=mol_2697.chk
# wB97XD/Def2SVP opt pop=full gfinput

C 6 H 12 O 1

1 2
C    1.340704  -0.215845  -0.201615
C    4.159835  -0.608851  -0.689296
C    4.616979  -1.461836  -3.410256
C    5.667421   1.737698  -0.023603
C    5.294238   4.098816  -1.547270
C    6.735022   1.974972   2.622770
O    8.277360   1.220706   0.526534
H    1.008282   0.397447   1.747505
H    0.293210  -1.974877  -0.504992
H    0.540084   1.220744  -1.458396
H    4.780988  -2.159503   0.542559
H    3.892269  -0.087419  -4.777398
H    3.674270  -3.267733  -3.776259
H    6.638702  -1.712337  -3.776580
H    6.522465   5.629645  -0.889494
H    3.343209   4.764548  -1.400797
H    5.731123   3.775541  -3.541214
H    6.270999   0.548947   4.015668
H    7.050360   3.839489   3.405570

