%chk=mol_4832.chk
# wB97XD/Def2SVP opt pop=full gfinput

C 5 H 7 N 1 O 1

1 2
C    4.354363   3.542726  -1.390706
C    5.874006   5.355144  -2.282128
O    8.384336   5.743917  -1.833148
C    9.627437   4.010868  -0.173949
C   12.391255   4.788094   0.014400
C   13.775159   3.078723   1.691796
N   14.856120   1.713774   3.023713
H    2.378258   3.504913  -1.943867
H    4.983963   2.068419  -0.118845
H    5.183330   6.806567  -3.557164
H    9.486936   2.084292  -0.929670
H    8.743706   4.076139   1.701264
H   12.523537   6.737894   0.701977
H   13.244731   4.792950  -1.873550

