%chk=mol_2349.chk
# wB97XD/Def2SVP opt pop=full gfinput

C 6 H 8 O 1

1 2
C    1.833545   0.072225   0.001946
C    4.662597   0.123361  -0.017499
C    5.959875   2.300968   0.019162
C    8.670158   2.223093  -0.001833
C    9.873725   0.004479  -0.035508
O    8.737583  -2.315519  -0.059999
C    6.016604  -2.391203  -0.080937
H    1.116753  -1.869071   0.007068
H    1.075651   1.014254  -1.677132
H    1.097610   1.012931   1.691343
H    5.030243   4.127861   0.063514
H    9.708752   3.989817   0.015911
H   11.910339  -0.177540  -0.043823
H    5.440030  -3.522941   1.554999
H    5.460761  -3.425752  -1.786963

