%chk=mol_4369.chk
# wB97XD/Def2SVP opt pop=full gfinput

C 5 H 9 N 1 O 1

1 2
C    4.983453  -2.066888   1.801457
C    5.869055  -0.567882  -0.485187
C    6.023256   2.206614   0.090707
C    8.161935   3.549095  -0.051023
N    8.211351   6.076509   0.480557
C   10.313823   7.577991   0.373939
O   10.284343   9.838444   0.863624
H    4.855973  -4.077632   1.331728
H    3.114061  -1.440028   2.431586
H    6.299799  -1.861720   3.385482
H    4.539632  -0.848903  -2.048198
H    7.702600  -1.301152  -1.111669
H    4.261635   3.120127   0.627068
H    9.941585   2.675361  -0.595094
H    6.603478   6.979061   0.997927
H   12.048742   6.573904  -0.193999

