%chk=mol_1852.chk
# wB97XD/Def2SVP opt pop=full gfinput

C 5 H 10 N 2

1 2
C    2.183843   0.491253  -0.154712
N    4.892841   0.085151   0.298048
N    5.403086  -1.492525   2.262947
C    7.142031  -3.114798   1.718838
C    6.135997   2.522104   0.910565
C    8.849682   2.938751   0.150649
C    6.779827   4.347088  -1.177432
H    1.890463   1.753004  -1.768973
H    1.240076   1.302380   1.500254
H    1.265247  -1.306443  -0.608284
H    7.734744  -4.500383   3.152687
H    8.102824  -3.208774  -0.131601
H    5.550201   3.353943   2.699455
H    9.813234   1.463272  -0.890874
H   10.045463   3.970201   1.452047
H    6.573979   6.344982  -0.788280
H    6.351200   3.814110  -3.106653

