%chk=mol_4343.chk
# wB97XD/Def2SVP opt freq pop=full gfinput

C 5 H 11 N 1 O 1

1 2
C    1.47308946   0.17992993   1.40781939
C    1.84665930   0.59274977  -0.00358000
C    3.03809881   1.53132939   0.01688999
C    2.75734878   3.01909900   0.13418995
C    2.64335895   3.64679861  -1.24323952
N    4.22410822   1.00511968  -0.07433998
O    5.22628832   1.97912920  -0.05656998
H    0.61544979  -0.49968979   1.39209950
H    1.21004951   1.04987955   2.01856923
H    2.30664921  -0.33149987   1.90092921
H    1.00230956   1.09103966  -0.49035981
H    2.09816933  -0.29251990  -0.59770977
H    3.54267859   3.51122856   0.71636969
H    1.81991935   3.16023874   0.68315977
H    3.57300854   3.52961874  -1.80942941
H    2.42642903   4.71591854  -1.15835953
H    1.84104931   3.17982888  -1.82357931
H    6.03876734   1.44350946  -0.12386996

