%chk=mol_2480.chk
# wB97XD/Def2SVP opt pop=full gfinput

C 6 H 12 O 1

1 2
C    1.703796  -0.186610   0.265809
C    4.567279  -0.041744  -0.059659
C    5.372662  -0.073076  -2.840145
O    4.504276   2.147560  -4.089348
C    5.859870   2.031399   1.587030
C    7.905896   0.083242   2.283639
C    6.010727  -2.014486   1.583931
H    1.169551  -0.286804   2.264440
H    0.937380  -1.866520  -0.670343
H    0.771481   1.479013  -0.533243
H    4.618018  -1.728929  -3.828453
H    7.431518  -0.118486  -3.037659
H    2.683751   1.999746  -4.284633
H    4.741304   2.652684   3.218260
H    6.543517   3.708323   0.590898
H    9.573730   0.146718   1.058568
H    8.527124   0.104729   4.253887
H    6.816053  -3.633754   0.582810
H    4.950365  -2.721829   3.218563

