%chk=mol_6380.chk
# wB97XD/Def2SVP opt freq pop=full gfinput

C 5 H 10 N 2

1 2
C    1.00625956   0.13254994   0.47173983
C    2.41976905   0.11281995  -0.09087997
C    3.40179849   1.05701959   0.62391979
C    3.91179848  -0.18551993   1.35946953
N    3.26066875  -0.96856964   0.35497987
C    2.74967909  -2.19500923   0.65380973
N    3.21626878  -3.06760883   1.47910941
H    0.38310987  -0.63621980   0.00264000
H    0.53352976   1.09918952   0.26587990
H    0.98534960  -0.02174999   1.55634940
H    2.43392897   0.20394993  -1.18279946
H    2.96439886   1.83206928   1.25966954
H    4.14198828   1.51644945  -0.04110999
H    4.99582815  -0.31915987   1.37353945
H    3.49333858  -0.32105988   2.36237907
H    1.85190940  -2.45398903   0.06755998
H    4.07351875  -2.70229912   1.90067935

