%chk=mol_4890.chk
# wB97XD/Def2SVP opt freq pop=full gfinput

C 5 H 9 N 1 O 1

1 2
C    0.95210963  -0.11029995   0.02645999
C    2.47625923  -0.03723999  -0.02078999
O    2.88584876  -0.73212975  -1.20825958
C    3.01963878   1.42623949  -0.00355000
N    2.54125929   2.23144913   1.12056959
C    4.49496841   1.42653954   0.03761999
C    5.69669771   1.42966938   0.07123998
H    0.55404979   0.26628992   0.97281963
H    0.61618978  -1.14622951  -0.09480996
H    0.50855982   0.46175984  -0.79588968
H    2.88279891  -0.59947979   0.82869971
H    2.68993902  -0.16649993  -1.97474921
H    2.71231914   1.92222929  -0.93269968
H    2.82662892   1.78759933   1.99239933
H    1.52540946   2.26268935   1.12600958
H    6.76118755   1.43339956   0.10197996

