%chk=mol_0693.chk
# wB97XD/Def2SVP opt pop=full gfinput

C 6 H 4

1 2
C    1.776361  -0.123191  -0.000000
C    4.302585  -0.078802  -0.000000
C    5.664946   2.232674  -0.000000
C    6.818377   4.186348  -0.000000
C    8.280308   6.685530  -0.000000
C    9.419756   8.646347  -0.000000
H    0.761579  -1.904976  -0.000000
H    0.664730   1.601902  -0.000000
H    5.368939  -1.832184   0.000000
H   10.428548  10.387957  -0.000000

