%chk=mol_0693.chk
# wB97XD/Def2SVP opt freq pop=full gfinput

C 6 H 4

1 2
C    0.94000965  -0.06518997  -0.00000000
C    2.27682924  -0.04169998  -0.00000000
C    2.99775887   1.18147957  -0.00000000
C    3.60812855   2.21531916  -0.00000000
C    4.38174868   3.53782868  -0.00000000
C    4.98471832   4.57544804  -0.00000000
H    0.40300983  -1.00806963  -0.00000000
H    0.35175988   0.84768963  -0.00000000
H    2.84111905  -0.96954966   0.00000000
H    5.51854801   5.49706793  -0.00000000

