%chk=mol_6948.chk
# wB97XD/Def2SVP opt pop=full gfinput

C 6 H 13 N 1

1 2
C    1.267364   0.942917   1.236240
C    3.533353   0.411110  -0.448659
C    5.778254   2.134068   0.069825
C    7.455367   1.354934   2.257769
N    6.342885   2.174111   4.632815
C    7.098189   3.238046  -2.234488
C    5.542435   4.924551  -0.575970
H   -0.307647  -0.294778   0.717775
H    0.628750   2.901448   1.042600
H    1.696521   0.605241   3.229580
H    2.925542   0.610646  -2.419530
H    4.109909  -1.565865  -0.223744
H    9.341067   2.192725   2.080759
H    7.705906  -0.699898   2.272339
H    6.172356   4.089878   4.618623
H    7.547018   1.749697   6.071482
H    6.372856   2.804977  -4.100063
H    9.133122   3.480800  -2.196750
H    6.528342   6.294602   0.584625
H    3.758854   5.611579  -1.315438

