%chk=mol_2204.chk
# wB97XD/Def2SVP opt freq pop=full gfinput

C 6 H 10 O 1

1 2
C    1.77404940   0.08333997  -0.74198973
C    1.84923935  -0.08850997   0.75051969
C    0.51765978   0.04603998   0.07596997
C   -0.34674987   1.24568951   0.27069992
C   -1.71029937   0.72901970  -0.16308995
C   -1.65717936  -0.74685973   0.19929992
O   -0.29337987  -1.14092958  -0.01537999
H    2.09622931   1.03000963  -1.15865958
H    1.99831927  -0.77588975  -1.36313951
H    2.12185907  -1.06431961   1.13638961
H    2.21592927   0.74247968   1.34047949
H   -0.36717987   1.53339946   1.32800949
H   -0.03602999   2.11102915  -0.32355988
H   -2.54520917   1.25741959   0.30500990
H   -1.80603933   0.83195972  -1.25024951
H   -2.32048917  -1.35186958  -0.42334986
H   -1.89863932  -0.91107970   1.25489950

