%chk=mol_5300.chk
# wB97XD/Def2SVP opt freq pop=full gfinput

C 4 H 7 N 1 O 2

1 2
C    2.24115896  -0.41088986  -1.59168947
O    2.26525927   0.11381996  -0.27105990
C    3.14752889   1.20712960  -0.13264994
C    3.34630871   1.56226945   1.32504952
O    3.56343865   2.97877884   1.34281957
N    2.86994886   3.52519870   0.23368990
C    2.62341905   2.53907895  -0.56121981
H    1.54109943  -1.25048947  -1.61428940
H    3.23215890  -0.77718967  -1.87658942
H    1.89942920   0.34524989  -2.30422902
H    4.10432863   1.02403963  -0.63497978
H    4.21595860   1.05449963   1.75231934
H    2.47216916   1.32683957   1.94292927
H    2.12137914   2.66257906  -1.53020942

