%chk=mol_5885.chk
# wB97XD/Def2SVP opt pop=full gfinput

C 4 H 7 N 1 O 2

1 2
N    2.430396   3.722458  -2.563716
C    4.604866   4.067579  -1.260882
O    4.929256   5.802706   0.225350
O    6.302048   2.241650  -1.857280
C    8.729552   2.385534  -0.633380
C   10.778847   0.808104  -1.812890
C   10.804906   3.627046  -2.123693
H    2.268635   2.274815  -3.789487
H    1.010758   4.972191  -2.329257
H    8.766874   2.584106   1.409717
H   10.300708  -0.334141  -3.443516
H   12.171688  -0.033335  -0.570867
H   12.198257   4.707591  -1.082586
H   10.337633   4.404857  -3.959713

