%chk=mol_5778.chk
# wB97XD/Def2SVP opt pop=full gfinput

C 5 H 11 N 1 O 1

1 2
N    2.894097   0.611856  -0.147399
C    5.173069  -0.274029  -1.467694
C    4.434242  -2.222507  -3.505215
O    2.356866  -1.313454  -4.976405
C    6.375199   2.036142  -2.611375
C    8.453917   3.415680  -1.228190
C    9.053867   1.951955  -3.585907
H    3.424429   1.881279   1.205116
H    2.105344  -0.868991   0.803644
H    6.462523  -1.164619  -0.113535
H    3.830872  -3.991498  -2.615211
H    6.009801  -2.633447  -4.779363
H    1.451631  -0.173855  -3.838166
H    5.046117   3.150797  -3.711857
H    9.135654   2.664495   0.552405
H    8.482301   5.462386  -1.335753
H    9.469267   3.005402  -5.294446
H   10.115534   0.211196  -3.402508

