%chk=mol_3724.chk
# wB97XD/Def2SVP opt pop=full gfinput

C 6 H 10 O 1

1 2
O    1.337945  -0.155165  -0.228506
C    4.025079  -0.061907  -0.186648
C    4.969904   2.623488   0.025247
C    3.448032   4.638673   0.327735
C    7.802698   2.946140  -0.201313
C    9.203023   1.702227   1.933738
C   10.907971  -0.144791   1.637561
H    0.881992  -1.931716  -0.276996
H    4.717626  -0.922583  -1.934154
H    4.674011  -1.180814   1.425420
H    1.410548   4.423584   0.460677
H    4.184553   6.548071   0.444558
H    8.312263   4.955901  -0.207133
H    8.418843   2.193594  -2.032779
H    8.788984   2.386781   3.829303
H   11.396296  -0.878534  -0.215504
H   11.863133  -0.960170   3.260514

