%chk=mol_1405.chk
# wB97XD/Def2SVP opt pop=full gfinput

C 5 H 14 N 2

1 2
C    3.958164  -2.438880   1.580435
C    6.009083  -0.854307   0.334841
C    5.671956   1.953108   0.927610
N    7.672118   3.414716  -0.302394
C    7.411355   6.121144   0.285424
C    9.524295   7.696212  -0.952025
N    9.794488   7.169016  -3.663347
H    4.244627  -4.442444   1.157684
H    2.085067  -1.897757   0.890552
H    3.986547  -2.205254   3.635210
H    5.952751  -1.166660  -1.713887
H    7.861866  -1.502843   1.002726
H    5.751986   2.229688   2.979361
H    3.812541   2.584730   0.266848
H    7.497526   3.228654  -2.216252
H    7.483958   6.420136   2.333887
H    5.575750   6.807002  -0.395047
H   11.328492   7.295344  -0.017423
H    9.119478   9.708298  -0.686897
H   10.424031   5.353878  -3.837316
H   11.213522   8.269914  -4.364965

