%chk=mol_3130.chk
# wB97XD/Def2SVP opt freq pop=full gfinput

C 5 H 12 O 2

1 2
C   -0.66626972   5.03966808  -0.10985996
C   -0.12850995   4.08484840   0.94065964
C    0.45849985   2.82466912   0.31556988
O    0.96691966   2.00617933   1.36669958
C    1.54817951   0.80653971   0.87108964
O    2.73671889   1.03336966   0.12057996
C    3.77340865   1.57694936   0.92824960
H   -1.08537960   5.93047762   0.36740986
H   -1.45574951   4.56726837  -0.70223975
H    0.12875995   5.36093807  -0.78966969
H   -0.92809969   3.80930853   1.63896942
H    0.63771975   4.58726835   1.54265952
H   -0.31665987   2.27880907  -0.23443992
H    1.26614952   3.09193873  -0.37511984
H    0.83019972   0.27922991   0.23328991
H    1.76819932   0.15045995   1.72055936
H    4.67559814   1.65602934   0.31657988
H    3.98605847   0.92474967   1.77963924
H    3.50592875   2.57878923   1.27663946

