%chk=mol_4631.chk
# wB97XD/Def2SVP opt pop=full gfinput

C 4 H 8 N 2 O 1

1 2
C    2.169009  -0.702449   0.720704
C    4.172288  -0.339584  -1.307861
C    4.357368  -2.718144  -2.894758
O    6.248663  -4.064744  -2.962505
N    3.373331   1.747562  -2.966190
C    5.212998   2.900597  -4.040631
N    4.855632   4.860546  -5.649204
H    1.992433   0.998059   1.886684
H    2.649320  -2.291822   1.955980
H    0.311843  -1.091600  -0.109340
H    6.004151   0.027855  -0.409504
H    2.650908  -3.214538  -3.987719
H    7.228051   2.411309  -3.780605
H    3.074036   5.568456  -5.619025
H    6.230257   6.188324  -5.744730

