%chk=mol_6318.chk
# wB97XD/Def2SVP opt freq pop=full gfinput

C 4 H 3 N 1 O 2

1 2
O    2.81342888   3.31404853   1.18658948
C    3.25800896   4.01961851   0.29401988
O    4.44632816   3.91112852  -0.37663987
N    5.17279816   2.80504894   0.10299996
C    6.28226757   2.72656894  -0.53817981
C    7.08787727   1.61964941  -0.11002996
C    7.76491737   0.69351971   0.24552990
H    2.72437906   4.89243841  -0.11333995
H    6.63116789   3.40077877  -1.33512950
H    8.35446739  -0.13217996   0.57103980

