%chk=mol_4613.chk
# wB97XD/Def2SVP opt freq pop=full gfinput

C 4 H 9 N 1 O 2

1 2
C    3.23670888  -0.88730967  -1.05643964
C    2.91882896  -0.05172998   0.17376994
C    3.10162878   1.44715941  -0.05511998
O    2.62259889   2.14787936   1.08821952
C    4.56112814   1.79228926  -0.29819989
N    5.34805822   2.08532929   0.68938977
O    6.63137770   2.31848907   0.18327993
H    3.03768897  -1.94476926  -0.85505968
H    4.28936863  -0.79516965  -1.34173942
H    2.62037897  -0.58270979  -1.90815926
H    3.54561853  -0.38401985   1.01065958
H    1.88343930  -0.24468991   0.48080981
H    2.52005911   1.78247941  -0.91990966
H    3.35578871   2.13616920   1.73501945
H    4.92231846   1.73399937  -1.34014952
H    7.13780737   2.54813910   0.98579961

