%chk=mol_6266.chk
# wB97XD/Def2SVP opt freq pop=full gfinput

C 4 H 7 N 1 O 2

1 2
O    0.93819970  -0.35807985  -0.44953984
C    2.34699917  -0.51914978  -0.33452988
C    3.00743890   0.71249974   0.26354989
O    2.37004924   1.62057936   0.79130971
C    4.48529816   0.79179972   0.15618995
C    5.30422831   0.92448962   1.41506946
N    5.23465776  -0.34587985   0.70129973
H    0.66907972   0.21373992   0.29667991
H    2.74856901  -0.69991976  -1.33536947
H    2.54473901  -1.38315952   0.30519989
H    4.86963797   1.25028956  -0.74694973
H    4.78563786   0.97353959   2.36582923
H    6.24100733   1.46542943   1.36850953
H    6.09756756  -0.50471979   0.17605993

