%chk=mol_5114.chk
# wB97XD/Def2SVP opt pop=full gfinput

C 4 H 10 N 2 O 1

1 2
C    1.976956   0.043350  -0.952101
N    4.701620   0.387602  -0.907900
C    5.646615   2.484253  -0.056352
C    3.991196   4.604110   0.969864
N    8.254929   2.869833  -0.057618
C    9.898972   1.205059  -1.508398
O    8.958379   5.409738  -0.320630
H    1.535686  -1.657025  -2.044873
H    1.002292   1.620516  -1.870394
H    1.227472  -0.239428   0.954860
H    2.432474   3.849372   2.093949
H    3.232225   5.693027  -0.614066
H    5.071874   5.866107   2.198186
H    9.635298  -0.767248  -0.942898
H   11.882012   1.688489  -1.168267
H    9.520800   1.383828  -3.534657
H    9.752234   5.774946   1.302607

