%chk=mol_2178.chk
# wB97XD/Def2SVP opt freq pop=full gfinput

C 5 H 8 O 2

1 2
C    1.89300931   0.17253993  -0.79684967
O    1.69969928  -0.06021998   0.60313976
C    0.51314980   0.07194997  -0.19360992
C   -0.33470988   1.24163949   0.14095995
C   -1.72525930   0.70342970  -0.15972994
O   -1.66303945  -0.71025974   0.10196996
C   -0.34166986  -1.14303958  -0.27628988
H    2.26428938   1.14537954  -1.09348965
H    2.26446915  -0.65221971  -1.39201951
H   -0.24739991   1.48628938   1.20503962
H   -0.11186996   2.13636923  -0.44693983
H   -2.49959898   1.16351950   0.46040982
H   -1.98789918   0.84117967  -1.21501958
H   -0.38771984  -1.52822936  -1.30000949
H   -0.02926999  -1.94427919   0.39899984

