%chk=mol_1538.chk
# wB97XD/Def2SVP opt freq pop=full gfinput

C 5 H 12 N 2

1 2
C    0.93806964  -0.14912996  -0.11348996
C    2.44021916   0.15704994  -0.07939997
N    3.07090878  -0.47245982  -1.24378943
C    2.83225894   1.62965941  -0.02057999
C    1.93849921   2.63807893  -0.07423998
C    4.32503843   1.85833919   0.15984994
N    4.72885847   3.26218867   0.22450991
H    0.43215984   0.26655990   0.76416969
H    0.76225966  -1.23072958  -0.10587996
H    0.45849985   0.25615990  -1.01191962
H    2.84428883  -0.32297990   0.82089972
H    2.64879894  -0.08761997  -2.08829927
H    2.84375882  -1.46567953  -1.24928951
H    0.87234968   2.47683907  -0.18251994
H    2.24711919   3.67656875   0.01109000
H    4.87473822   1.39160943  -0.66457975
H    4.64451838   1.37021947   1.08750963
H    4.56606865   3.67526865  -0.69254977
H    5.73641777   3.29856896   0.36632985

