%chk=mol_5730.chk
# wB97XD/Def2SVP opt freq pop=full gfinput

C 4 H 7 N 1 O 2

1 2
N    2.01457930  -0.55482978  -1.13800955
C    2.97465873  -0.28269988  -0.08181997
C    3.09044886   1.19546962   0.08693997
C    4.23552847   1.87590933  -0.08508997
C    4.39465809   3.32949853   0.10264996
O    3.28673887   4.05003834  -0.14910994
O    5.46527815   3.82512856   0.41233984
H    1.82699931  -1.55692947  -1.16370952
H    2.43811893  -0.33601990  -2.03953910
H    3.93654871  -0.74995971  -0.32051986
H    2.61882901  -0.72036976   0.85672969
H    2.17880940   1.69411945   0.40672985
H    5.16253805   1.36542940  -0.32787988
H    2.55737901   3.53278852  -0.53636980

