%chk=mol_6109.chk
# wB97XD/Def2SVP opt freq pop=full gfinput

C 4 H 6 N 2 O 1

1 2
O    1.89437938  -0.78408968  -0.59885979
C    2.02886915   0.19235992   0.13527995
C    3.11328888   1.23072958  -0.03648999
C    3.49482870   1.47172940  -1.48363948
C    3.48291874   2.96314907  -1.50343955
N    3.01430893   3.53809857  -0.44532982
N    2.59390903   2.54218912   0.36928988
H    1.41120946   0.28908989   1.04533958
H    3.97891855   0.95794964   0.57602984
H    2.78008890   1.09926951  -2.22262907
H    4.49902868   1.11037958  -1.71965933
H    3.85815859   3.51492882  -2.37704897
H    2.75574899   2.75671911   1.35515952

