%chk=mol_0920.chk
# wB97XD/Def2SVP opt pop=full gfinput

C 4 H 4 O 2

1 2
O    2.720676  -1.583515  -1.020566
C    4.427590  -0.235630   0.556846
C    3.877057   2.583123   0.627219
O    2.477790   3.640009  -0.889551
C    5.157214   4.032845   2.559162
C    6.211586   5.241987   4.164598
H    2.161185  -0.399356  -2.324798
H    6.343338  -0.521527  -0.165861
H    4.290019  -1.021473   2.463504
H    7.132148   6.334324   5.585237

