%chk=mol_5930.chk
# wB97XD/Def2SVP opt freq pop=full gfinput

C 5 H 9 N 1 O 1

1 2
O    1.02850962  -0.10143996  -0.09320996
C    2.44410920   0.05291998  -0.03179999
C    3.35576892  -0.58911973  -1.10432959
C    4.41983843  -0.30563989   0.01012000
C    3.28379869  -0.75399977   0.98856962
N    4.43248844   1.17738950   0.12148996
C    2.98688889   1.46540952   0.09358996
H    0.69837976   0.19825992   0.77070969
H    3.47823858  -0.04788998  -2.04811931
H    3.16512871  -1.64514935  -1.32871950
H    5.37434816  -0.82771969  -0.00094000
H    3.08323908  -1.83115923   1.03203964
H    3.33626866  -0.36666986   2.01143932
H    4.83581829   1.52396941   0.99226958
H    2.72923899   2.09233928  -0.76491970
H    2.65867901   1.95489919   1.01661968

