%chk=mol_3766.chk
# wB97XD/Def2SVP opt pop=full gfinput

C 5 H 6 O 2

1 2
O    5.098500  -1.169041   2.485821
C    4.430614   0.040497   0.166523
C    5.531965   2.707637   0.000000
C    4.501573   4.242889   2.172146
O    2.771302   5.776194   1.934532
C    8.260730   2.707637   0.000000
C   10.509807   2.707637   0.000000
H    4.465177  -2.895420   2.398308
H    2.362555   0.101516   0.069126
H    5.123936  -1.135895  -1.391122
H    4.855632   3.583601  -1.752910
H    5.303743   3.827867   4.053028
H   12.524575   2.704349   0.005537

