%chk=mol_6908.chk
# wB97XD/Def2SVP opt freq pop=full gfinput

C 7 H 10

1 2
C    1.27144957  -0.20561992   0.20987992
C    2.72793889  -0.14924996  -0.10328996
C    3.21972871  -0.48563981  -1.48685944
C    3.26952887   0.94384962  -0.99723965
C    4.57414818   1.59790945  -0.65501976
C    5.02420807   2.20257926  -1.88665926
C    5.39515781   2.70094895  -2.90179896
H    1.04202962   0.45845982   1.04883957
H    0.98639959  -1.22360957   0.49228981
H    0.65452975   0.09693996  -0.64250976
H    3.33014870  -0.47582984   0.73743975
H    2.49452925  -0.72813970  -2.25566912
H    4.15013838  -1.03592956  -1.57509947
H    2.54895902   1.64768934  -1.40430951
H    5.30407763   0.87399966  -0.27745989
H    4.41597843   2.35282898   0.12184995
H    5.72561789   3.14522886  -3.81219840

