%chk=mol_2307.chk
# wB97XD/Def2SVP opt freq pop=full gfinput

C 6 H 8 O 1

1 2
C    0.96113962   0.04142999  -0.00549000
C    2.44463897   0.03120999  -0.00716000
C    3.28405881   1.08222961  -0.00608000
C    4.64515829   0.60303980  -0.00111000
C    4.64395809  -0.73753977   0.00169000
C    3.23488879  -1.24732959   0.01066000
O    2.99608874  -1.99297929  -1.16447949
H    0.56805980   1.06321955   0.00800000
H    0.57709974  -0.47872981   0.87746966
H    0.57219982  -0.45667985  -0.89888966
H    3.00926876   2.12650919  -0.00935000
H    5.51459789   1.24396956  -0.00283000
H    5.51684809  -1.37223947   0.00545000
H    3.02635884  -1.85410929   0.89648962
H    3.16360879  -1.38772941  -1.90679932

