%chk=mol_2227.chk
# wB97XD/Def2SVP opt freq pop=full gfinput

C 5 H 8 O 2

1 2
C    0.79487967   1.04265964  -0.51921982
O   -0.28895989   0.29049990   0.04838998
C    0.94953966  -0.40082985  -0.13587995
C    1.61276948  -0.88496965   1.11891961
C    1.31243944  -0.27153990   2.49747896
O    1.27363956  -1.59055936   3.10346889
C    1.12961960  -2.18188930   1.78470933
H    0.72932971   1.29244959  -1.57096934
H    1.25660956   1.80212927   0.09875996
H    1.01070964  -1.14330959  -0.92122966
H    2.69752884  -0.92055964   0.93853962
H    0.35169989   0.23918991   2.61420894
H    2.11190915   0.34664989   2.91460896
H    1.78391933  -3.04768872   1.65028930
H    0.09016997  -2.46719909   1.59208941

