%chk=mol_5935.chk
# wB97XD/Def2SVP opt freq pop=full gfinput

C 5 H 7 N 1 O 1

1 2
O    1.02806962   0.06917997  -0.04104998
C    2.22842932   0.03699999   0.01904999
C    3.47349882   1.05963969   0.06777998
C    4.07490826   0.03301999  -0.96561962
C    3.46150875  -1.03790963   0.03749999
N    4.25179863  -0.78571969   1.27531958
C    4.22459841   0.69415975   1.33778942
H    3.32299876   2.08860922  -0.24425991
H    5.16493845   0.03202999  -1.07587957
H    3.63110876   0.05185998  -1.96907926
H    3.31253862  -2.05836916  -0.30232987
H    3.81578875  -1.16402960   2.11762929
H    5.24273825   1.09549963   1.34375942
H    3.69501853   1.04068959   2.23121929

