%chk=mol_1628.chk
# wB97XD/Def2SVP opt pop=full gfinput

C 5 H 8 N 2

1 2
C    2.196259  -0.181697  -0.078272
N    4.957149  -0.196796  -0.054197
C    6.058802  -1.156928  -2.392752
C    6.088282   1.642663  -1.785640
C    8.481752   2.933497  -0.990670
C    9.666743   3.733608  -3.364582
N   10.598567   4.373790  -5.244992
H    1.501293   1.241966   1.253096
H    1.486874  -2.022876   0.545545
H    1.361019   0.223970  -1.931659
H    4.809769  -1.821564  -3.874468
H    7.785766  -2.237455  -2.182860
H    4.810884   2.885461  -2.802445
H    9.734867   1.672068   0.068862
H    8.045793   4.566410   0.202295

