%chk=mol_0806.chk
# wB97XD/Def2SVP opt freq pop=full gfinput

C 4 H 8 O 2

1 2
C    2.39425898  -0.96710962  -0.89403969
O    2.02695918   0.31823987  -0.41294986
C    3.16849899   1.11245966  -0.02756999
C    3.61490870   2.13709927  -1.03012967
C    2.88781905   2.57219911   0.20581992
O    3.70025849   3.21552873   1.19986963
H    1.48653948  -1.49751937  -1.19378960
H    2.89198899  -1.53857934  -0.10478996
H    3.05210876  -0.87471968  -1.76361942
H    3.91684866   0.65969980   0.61612982
H    3.08403897   2.19140911  -1.97339928
H    4.67635822   2.34021902  -1.10049963
H    1.85623932   2.89457893   0.10658996
H    3.62076855   4.18297815   1.13776958

