%chk=mol_5391.chk
# wB97XD/Def2SVP opt freq pop=full gfinput

C 4 H 7 N 1 O 2

1 2
C    1.55307937  -0.12823994  -0.42478985
O    2.89352894   0.28592989  -0.18980993
C    3.13071895   1.62087941   0.01948999
C    2.21010923   2.59565902   0.03156999
N    4.44185829   1.95032930   0.23184991
C    5.50547791   1.09218967   0.25399992
O    6.65495729   1.47103941   0.45179981
H    1.55718946  -1.21260953  -0.57060981
H    1.15424967   0.33194989  -1.33452940
H    0.91718966   0.09255996   0.43865982
H    1.15517962   2.41086912  -0.12837994
H    2.48407912   3.63152862   0.20528992
H    4.69087791   2.91730905   0.39319986
H    5.25465822   0.03525998   0.08053996

