%chk=mol_0316.chk
# wB97XD/Def2SVP opt pop=full gfinput

C 5 H 7 N 1

1 2
C    1.772412  -0.038097   0.008239
C    4.039101  -0.011792   0.004838
C    6.775216   0.020541  -0.009392
C    8.068242   1.931111   1.778591
N    9.990774  -0.022960   2.381471
C    8.113993  -1.976106   1.645970
H   -0.242660  -0.061511   0.014645
H    7.557563   0.094940  -1.932415
H    6.954665   2.508706   3.429324
H    8.826098   3.628917   0.873205
H   11.523040   0.034714   1.210937
H    8.910664  -3.590423   0.628164
H    7.015571  -2.690214   3.252861

