%chk=mol_3925.chk
# wB97XD/Def2SVP opt pop=full gfinput

C 5 H 7 N 1 O 1

1 2
C    1.876385  -0.087664  -0.013058
C    4.649237   0.202238   0.000926
C    6.241179   2.267823   0.004932
C    8.715096   1.285656   0.019313
N   10.863809   2.624735   0.027533
C    8.500838  -1.299017   0.022790
O    6.021896  -1.980131   0.011773
H    0.937304   1.754819   0.002721
H    1.250205  -1.143606   1.650959
H    1.264132  -1.108211  -1.704098
H    5.665720   4.225938  -0.002079
H   10.888753   4.542051   0.043275
H   12.597916   1.806030   0.056654
H    9.837045  -2.841128   0.031917

