%chk=mol_1399.chk
# wB97XD/Def2SVP opt freq pop=full gfinput

C 7 H 10

1 2
C    0.95557964  -0.04924998   0.08736997
C    2.45056915   0.02443999  -0.01662999
C    3.10639882   1.20013964  -0.08950996
C    4.60016870   1.31827939  -0.20756991
C    5.30447817  -0.00571000  -0.28602988
C    4.66456842  -1.18188965  -0.21061993
C    3.17512894  -1.30277944  -0.04055998
H    0.49238983   0.94297963   0.07979997
H    0.66313976  -0.54859978   1.01656961
H    0.54481977  -0.61411977  -0.75589973
H    2.55404902   2.13545918  -0.06746997
H    4.98219776   1.87378919   0.65627974
H    4.83764791   1.89892924  -1.10592961
H    6.38379765   0.01459999  -0.40963984
H    5.23008823  -2.10778928  -0.27307990
H    2.78265905  -1.91131926  -0.86367971
H    2.97463894  -1.83840942   0.89495969

