%chk=mol_1128.chk
# wB97XD/Def2SVP opt freq pop=full gfinput

C 4 H 3 N 1 O 1

1 2
O    1.00990963  -0.06296998   0.01870999
C    2.44142914   0.01394999   0.00042000
C    2.92715907  -0.72717971  -1.17378950
C    3.32101870  -1.33727944  -2.13220930
C    2.89675879   1.42122948   0.03918999
N    3.23214865   2.53165889   0.11475996
H    0.70002973   0.54500979   0.71141970
H    2.79202890  -0.49267980   0.90696967
H    3.66200876  -1.87649930  -2.98562884

