%chk=mol_3977.chk
# wB97XD/Def2SVP opt freq pop=full gfinput

C 5 H 11 N 1 O 1

1 2
C    0.89608967  -0.03503999  -0.19924992
C    2.38155913   0.08065996   0.02542999
C    2.80505896  -0.06887998   1.46315944
N    3.28091884  -0.48921981  -0.98717964
C    3.16552877   0.97544962  -0.92733967
C    4.37579870   1.76404941  -0.53691977
O    5.43947792   1.42754948  -1.42009950
H    0.62562972   0.08736997  -1.25381958
H    0.36703986   0.73440969   0.37253985
H    0.53477979  -1.01580966   0.12736996
H    3.88209844  -0.23559992   1.57009935
H    2.29983926  -0.92458963   1.92399919
H    2.53811908   0.82902968   2.02977920
H    2.75265908  -0.85905969  -1.78066933
H    2.65652895   1.43260944  -1.76941931
H    4.71067858   1.57045949   0.48495981
H    4.17730856   2.83611894  -0.62782979
H    5.42662811   0.45118985  -1.45737946

