%chk=mol_3232.chk
# wB97XD/Def2SVP opt pop=full gfinput

C 5 H 8 O 2

1 2
C    1.940031   0.209042  -0.334482
C    4.786147   0.327981  -0.374090
O    6.058783  -1.560895  -0.865173
C    6.103759   2.774742   0.193281
C    4.837038   4.956582   0.462473
C    8.925309   2.592837   0.461773
O   10.034616   1.762812  -1.839497
H    1.144172   1.474534  -1.756141
H    1.241852   0.685460   1.551465
H    1.335054  -1.717289  -0.779002
H    2.802634   5.117416   0.267906
H    5.840406   6.704125   0.864417
H    9.441639   1.273260   1.971476
H    9.763270   4.424662   0.930841
H    9.338308   0.073284  -2.141778

