%chk=mol_5091.chk
# wB97XD/Def2SVP opt freq pop=full gfinput

C 4 H 8 N 2 O 1

1 2
C    0.81592971   2.15992904  -0.63433981
N    2.07304907   1.59913945  -0.14805993
C    3.07695889   2.39938927  -0.22962992
C    4.41488838   1.98797917   0.23350991
C    5.43230820   2.85314894   0.17075993
N    6.72671747   2.62684894   0.56754977
O    7.72012711   3.44076872   0.03693999
H   -0.00722000   1.77475929  -0.02425999
H    0.64350975   1.85138929  -1.67004943
H    0.77794969   3.25387883  -0.57819980
H    2.99469900   3.42014861  -0.64463973
H    4.51486826   0.98276967   0.62266976
H    5.29196787   3.85915852  -0.21843992
H    6.98637724   1.63920939   0.62716979
H    7.88332701   4.08547878   0.75207973

