%chk=mol_5754.chk
# wB97XD/Def2SVP opt freq pop=full gfinput

C 4 H 4 N 2 O 1

1 2
N    1.01800954  -0.28256989  -0.02562999
C    2.36832905  -0.01863999  -0.03191999
C    3.05351877   1.13798952   0.00000000
C    2.33899903   2.43272901   0.00955000
O    2.90301895   3.51318884   0.13398995
C    4.45951843   1.13798952   0.00000000
N    5.61052799   1.13798952   0.00000000
H    0.77179968  -1.22549951   0.27857989
H    0.40754983   0.42152983   0.38224983
H    2.93397903  -0.95297968  -0.08185997
H    1.24446952   2.38269901  -0.10135996

