%chk=mol_1048.chk
# wB97XD/Def2SVP opt pop=full gfinput

C 6 H 6

1 2
C    1.889726   0.000000   0.000000
C    4.618491   0.000000   0.000000
C    6.867567   0.000000   0.000000
C    9.596332   0.000000   0.000000
C   10.507217   2.572238   0.000000
C   11.257968   4.692322   0.000000
H    1.145212   1.929203   0.022072
H    1.145023  -0.983621   1.659671
H    1.145023  -0.945392  -1.681743
H   10.310119  -1.010229  -1.660200
H   10.310119  -1.010229   1.660200
H   11.918673   6.593009   0.000000

