%chk=mol_4477.chk
# wB97XD/Def2SVP opt pop=full gfinput

C 5 H 11 N 1 O 1

1 2
C    3.809952  -2.178438  -1.030940
C    5.863064  -1.632156   0.912813
C    7.092955   0.972623   0.564178
N    8.761281   1.454484   2.753388
C    9.624356   4.070602   2.856416
C    8.607533   1.001952  -1.898589
O   10.896350   0.636082  -2.046819
H    2.936729  -4.013211  -0.641430
H    4.576785  -2.244484  -2.949711
H    2.327425  -0.737730  -0.967067
H    7.295817  -3.128290   0.802699
H    5.006773  -1.751606   2.797985
H    5.630269   2.436273   0.457049
H   10.315184   0.313071   2.576774
H    8.031166   5.389348   2.901977
H   10.850430   4.550158   1.261695
H   10.714332   4.357708   4.590768
H    7.474188   1.309013  -3.623153

