%chk=mol_3250.chk
# wB97XD/Def2SVP opt pop=full gfinput

C 5 H 6 O 2

1 2
C    1.889178  -0.115821  -0.015855
C    4.762110   0.000000   0.000000
O    5.700661  -1.276926  -2.174243
C    5.672996   2.572238   0.000000
C    6.423746   4.692322   0.000000
C    7.378983   7.245342  -0.002835
O    5.937727   9.047518  -0.050097
H    1.083815   0.807329   1.651847
H    1.246142  -2.083102  -0.058090
H    1.108816   0.800488  -1.702549
H    5.472874  -1.013177   1.658008
H    5.101486  -0.350884  -3.644186
H    9.455604   7.427758   0.034525

