%chk=mol_3972.chk
# wB97XD/Def2SVP opt pop=full gfinput

C 4 H 8 N 2 O 1

1 2
C    2.229159   0.498680  -0.986002
C    4.743288  -0.294117  -0.007464
C    6.751066  -1.278286  -1.734410
N    7.081371   1.150163  -0.410430
C    7.039079   3.315014  -1.876952
N    6.002205   3.722704  -4.056165
O    6.494479   6.214780  -4.797996
H    1.642229   2.282468  -0.118543
H    0.813716  -0.931975  -0.504614
H    2.196920   0.716943  -3.041779
H    4.631133  -1.042014   1.894980
H    6.511373  -1.151561  -3.759931
H    8.016747  -2.726232  -1.047494
H    8.124707   4.826965  -0.930444
H    5.657197   6.309644  -6.436861

