%chk=mol_2333.chk
# wB97XD/Def2SVP opt freq pop=full gfinput

C 6 H 12 O 1

1 2
C    1.03717959  -0.04878998   0.09838996
C    2.55588913   0.04279998  -0.01241999
C    2.97129869   0.14952995  -1.48204947
C    3.12261868   1.18220961   0.83135974
C    4.48863840   0.66319972   1.20915949
C    4.23286867  -0.81860965   1.37827957
O    3.13572884  -1.16513956   0.51931983
H    0.72872972  -0.20148993   1.13946950
H    0.65515977  -0.90917969  -0.46321982
H    0.55199981   0.85690969  -0.27864990
H    4.06110859   0.13908994  -1.59481931
H    2.58394909   1.06413960  -1.94323921
H    2.59982896  -0.71018976  -2.05220938
H    2.53193903   1.32004952   1.74569929
H    3.15602875   2.14193916   0.30751988
H    5.19769812   0.83378965   0.39092985
H    4.89923811   1.12782955   2.10997915
H    5.10499811  -1.42440951   1.11906958
H    3.93763852  -1.05465961   2.40572906

