%chk=mol_5972.chk
# wB97XD/Def2SVP opt freq pop=full gfinput

C 5 H 5 N 1 O 1

1 2
O    1.08056962  -0.16728993  -0.10432997
C    2.27634931   0.04197999  -0.02211999
C    2.93561888   1.36279953  -0.15595995
C    4.25449848   1.13999963  -0.03287999
C    4.64586830  -0.25202990   0.20492992
N    4.32324839  -1.26656961  -0.77947974
C    3.31168890  -0.99603963   0.24479991
H    2.40845895   2.28194928  -0.33337986
H    4.99558830   1.92817926  -0.09716996
H    5.38333797  -0.47583982   0.96513963
H    4.05271816  -0.85884970  -1.67621946
H    3.14206862  -1.73473930   1.01459956

