%chk=mol_0144.chk
# wB97XD/Def2SVP opt pop=full gfinput

C 4 H 9 N 1

1 2
C    1.889008  -0.066632   0.085435
C    4.743629   0.103274   0.026286
C    5.991622   2.075429   1.780028
C    7.928289  -0.025474   2.312080
N    5.963787  -1.881638   1.593719
H    1.227301  -1.706801  -0.990273
H    1.048382   1.621668  -0.766095
H    1.157382  -0.229640   2.016262
H    5.481623   0.168450  -1.913159
H    4.864325   2.616194   3.431743
H    6.724231   3.774388   0.865287
H    9.566587  -0.011301   1.040181
H    8.587652  -0.165162   4.263600
H    6.610867  -3.404304   0.611497

