%chk=mol_5809.chk
# wB97XD/Def2SVP opt pop=full gfinput

C 4 H 6 N 2 O 1

1 2
N    2.313818  -0.312126  -1.292062
C    4.350943   0.253110  -0.066594
N    5.449611   2.574279   0.181962
O    7.677976   2.679084   1.627489
C    8.379140   5.339345   1.545040
C    6.412616   6.630085  -0.013512
C    4.764642   4.876041  -0.739677
H    1.979035  -2.213115  -1.123688
H    5.403672  -1.246142   0.933015
H   10.254656   5.496363   0.690846
H    8.419013   6.066607   3.479288
H    6.350746   8.614845  -0.460129
H    3.084109   5.061234  -1.883849

