%chk=mol_5332.chk
# wB97XD/Def2SVP opt pop=full gfinput

C 5 H 13 N 1 O 1

1 2
C    3.564080  -0.119450   3.514040
O    5.754084   1.427348   3.358478
C    5.687698   3.219999   1.332616
C    3.735875   5.291025   1.817066
C    8.363418   4.304569   1.007507
C    9.409475   5.564639   3.390150
N   11.940026   6.567327   2.906626
H    3.919368  -1.595269   4.915631
H    3.164819  -1.021850   1.697692
H    1.934210   0.981939   4.144037
H    5.203153   2.231181  -0.425188
H    3.901529   6.056799   3.731850
H    1.815894   4.537591   1.649051
H    3.920199   6.832702   0.450889
H    8.370523   5.651491  -0.569261
H    9.632860   2.749041   0.481294
H    9.508138   4.209233   4.951026
H    8.194306   7.128406   3.984034
H   13.114718   5.115224   2.432777
H   12.642268   7.302771   4.542826

