%chk=mol_5606.chk
# wB97XD/Def2SVP opt pop=full gfinput

C 4 H 6 N 2 O 1

1 2
N    2.360551   0.286445   0.564726
C    4.516124  -0.121075  -0.472942
O    4.927517  -2.358284  -1.691210
C    7.538647  -2.498747  -2.363102
C    8.587029   0.028176  -1.736356
C    7.523057   2.360816  -2.925617
N    6.581803   1.470698  -0.473849
H    2.460934   2.033364   1.390196
H    8.433206  -4.004046  -1.263376
H    7.703714  -2.925731  -4.378987
H   10.369929   0.048585  -0.750580
H    8.577221   4.104239  -2.782962
H    6.171638   2.223792  -4.453688

