%chk=mol_2917.chk
# wB97XD/Def2SVP opt pop=full gfinput

C 6 H 8 O 1

1 2
C    1.866369   0.031804   0.476589
C    4.667453  -0.279623   0.085472
C    5.679043  -2.593025  -0.224802
C    6.277651   2.082705   0.025530
O    5.321563   3.754149  -1.849702
C    6.311647   3.346100   2.502281
C    6.346324   4.390854   4.517466
H    1.474005   0.979445   2.272396
H    0.883371  -1.789835   0.514705
H    1.035967   1.147555  -1.054392
H    4.522096  -4.287713  -0.196324
H    7.692584  -2.855319  -0.524985
H    8.219647   1.621120  -0.526364
H    3.927928   4.664052  -1.078070
H    6.385479   5.314590   6.306980

