%chk=mol_2461.chk
# wB97XD/Def2SVP opt pop=full gfinput

C 5 H 6 O 2

1 2
C    1.947835  -0.052704   0.268662
C    4.457222   0.035810   0.011225
C    6.209905   2.222677  -0.015968
O    8.403385   1.410605  -1.403405
C    8.708274  -1.275319  -1.053938
C    6.084635  -2.178344  -0.472885
O    5.389763  -4.374244  -0.347804
H    0.943937  -1.843088   0.186233
H    0.841552   1.647255   0.561627
H    6.803260   2.733546   1.899590
H    5.412591   3.880874  -0.955975
H    9.420814  -2.099429  -2.805393
H    9.976034  -1.624673   0.537589

