%chk=mol_5204.chk
# wB97XD/Def2SVP opt freq pop=full gfinput

C 6 H 11 N 1

1 2
C    1.03500962  -0.07011997  -0.05124998
C    2.52646899   0.06502998  -0.00923000
C    3.43738866  -0.58877981  -1.09343958
C    4.51459837  -0.31107989   0.00550000
C    3.39147878  -0.74334973   1.00488961
N    4.53875828   1.16616964   0.10672995
C    3.10126877   1.46908951   0.10912996
H    0.57515979   0.33950987   0.85425967
H    0.73454976  -1.12029958  -0.13054995
H    0.61424983   0.46136984  -0.91210961
H    3.54711866  -0.05436998  -2.04290915
H    3.24216890  -1.64589942  -1.31043947
H    5.46478796  -0.84144968  -0.01602999
H    3.19096875  -1.82029927   1.05586958
H    3.45940852  -0.35451987   2.02612925
H    4.96122837   1.51194954   0.96783966
H    2.83558893   2.10455918  -0.74235970
H    2.79786897   1.96353936   1.03871965

