%chk=mol_1041.chk
# wB97XD/Def2SVP opt freq pop=full gfinput

C 4 H 11 N 1 O 1

1 2
C    1.01607966  -0.67312974   0.53434980
N    2.22426939  -0.10796996  -0.07306997
C    2.89741898  -1.13922966  -0.87036967
C    1.91153932   1.05696964  -0.93471962
C    1.41590941   2.26840901  -0.13069995
O    2.31370902   2.54042912   0.94453961
H    0.55726981   0.03356998   1.23309958
H    1.26318944  -1.56329942   1.12567949
H    0.26904991  -0.95741963  -0.21591993
H    3.16824889  -1.99681926  -0.24293990
H    3.83397841  -0.75358969  -1.29008949
H    2.27102900  -1.49882936  -1.69477940
H    1.18597949   0.80048972  -1.71618927
H    2.83870912   1.36701953  -1.43306947
H    0.41843987   2.09826922   0.28611991
H    1.36712956   3.15661883  -0.76892966
H    2.64863896   1.66087949   1.21633947

