%chk=mol_6358.chk
# wB97XD/Def2SVP opt freq pop=full gfinput

C 5 H 10 N 2

1 2
C    0.90753967   0.05464998  -0.25722992
C    2.39531898   0.10918996  -0.25069991
C    3.24772859  -0.75658971  -1.13342965
C    2.67779899  -1.74432933  -2.09043932
N    3.08551884   0.67733973  -1.41998947
C    4.16522837   1.48485947  -1.16993952
N    4.49668837   2.51755905  -1.86563933
H    0.49862981   0.95507962   0.21326992
H    0.56026977  -0.81228971   0.31355989
H    0.49120983  -0.00865000  -1.26738954
H    2.78938890   0.40022984   0.71602976
H    4.22323847  -1.05725956  -0.76970971
H    1.81131935  -1.35473955  -2.63537908
H    2.37031913  -2.65087891  -1.55842936
H    3.43386865  -2.02735925  -2.83102894
H    4.77581835   1.19643950  -0.29555988
H    3.80437851   2.60268903  -2.61896920

