%chk=mol_2485.chk
# wB97XD/Def2SVP opt pop=full gfinput

C 6 H 10 O 1

1 2
C    1.757162  -0.049832  -0.151613
C    4.613105  -0.038059   0.288599
C    5.846662   2.343657  -0.840626
O    6.056856   2.136883  -3.527117
C    7.771310   0.171908  -4.247934
C    7.240108  -2.263419  -2.892434
C    5.771072  -2.387499  -0.830176
H    0.881009   1.613448   0.712918
H    0.885998  -1.726397   0.696383
H    1.288963  -0.040988  -2.168914
H    4.952311  -0.030160   2.332168
H    4.714111   4.023397  -0.419311
H    7.732211   2.660942  -0.035621
H    9.713552   0.789074  -3.882442
H    7.564800  -0.105277  -6.287043
H    8.089199  -3.967763  -3.655826
H    5.395754  -4.193019   0.074984

