%chk=mol_5124.chk
# wB97XD/Def2SVP opt freq pop=full gfinput

C 4 H 10 N 2 O 1

1 2
C    1.06627965  -0.18769994   0.04712998
N    2.51760912  -0.05089998   0.02755999
C    2.90374899   1.36982942  -0.01938999
C    4.43356848   1.52533948  -0.01682999
N    5.07031822   0.84684968  -1.13203955
C    5.12447786   1.40327954  -2.38058901
O    4.68154812   2.49887919  -2.69191909
H    0.80228972  -1.24826956   0.09530997
H    0.61160976   0.23239991  -0.85548967
H    0.63431978   0.29956988   0.92675966
H    2.88031888  -0.50196981  -0.81243968
H    2.49955916   1.89669931   0.85301971
H    2.48884892   1.83685935  -0.92109960
H    4.85959816   1.10711956   0.90162969
H    4.69199848   2.58913898  -0.05818998
H    5.40031815  -0.09900996  -0.99236965
H    5.62242794   0.73884970  -3.10648870

