%chk=mol_5931.chk
# wB97XD/Def2SVP opt freq pop=full gfinput

C 5 H 9 N 1 O 1

1 2
O    1.08508968   0.09762996   0.29246989
C    2.52536917   0.04494998   0.15444994
C    3.10070896  -0.92508966  -0.93484968
C    4.61530828  -0.75674969  -0.89973968
C    4.67369843   0.76707971  -0.84051967
C    3.17673874   1.05097961  -0.85678965
N    2.57933903   0.12469996  -1.92353928
H    0.79656965   0.16078994  -0.63989979
H    2.99418902  -0.01376999   1.14201963
H    2.67157888  -1.92266929  -1.02327955
H    5.06483793  -1.22078955  -0.01623999
H    5.10065794  -1.15245962  -1.79750943
H    5.18880796   1.19371951  -1.70681942
H    5.15399837   1.12603962   0.07487997
H    2.82306910   2.08192921  -0.86559969
H    3.07242894   0.14021994  -2.81708908

