%chk=mol_5308.chk
# wB97XD/Def2SVP opt pop=full gfinput

C 5 H 11 N 1 O 1

1 2
C    2.484933   0.395822  -0.525476
O    5.136181   0.493842  -0.113780
C    6.073920   3.012677  -0.286369
C    8.856145   2.954643   0.195322
C   10.706017   2.893605  -1.969435
C   10.447710   5.237527  -0.388131
N   12.493868   5.943548   1.322317
H    1.858697  -1.557834  -0.277790
H    2.032986   0.995621  -2.452127
H    1.488991   1.584989   0.843252
H    5.157063   4.188975   1.150031
H    5.647220   3.789732  -2.159144
H    9.304596   1.859434   1.867465
H    9.980645   2.950297  -3.885258
H   12.384301   1.738775  -1.763417
H    9.515395   6.839165  -1.281045
H   13.415790   4.389267   1.992395
H   11.804042   6.851675   2.875464

