%chk=mol_1581.chk
# wB97XD/Def2SVP opt freq pop=full gfinput

C 4 H 5 N 3

1 2
C    1.17594957  -0.32164988  -0.22766992
C    2.43284917  -0.43206984   0.21151991
N    3.43719864   0.48270983   0.03363999
C    4.74410820   0.44762981   0.44838986
N    5.37550783  -0.45435986   1.11537957
C    5.59222794   1.58365941   0.10657996
N    6.20213795   2.52393913  -0.20427993
H    0.45206985  -1.10774958  -0.03219999
H    0.83170968   0.54181981  -0.78723973
H    2.71896911  -1.32200956   0.76747972
H    3.15844893   1.31116951  -0.48760983
H    4.74371815  -1.22679949   1.33108950

