%chk=mol_4991.chk
# wB97XD/Def2SVP opt pop=full gfinput

C 4 H 6 N 2 O 1

1 2
C    1.946418   0.019729  -0.013304
N    4.671195   0.070940   0.001739
C    6.187341   2.164795   0.009543
C    8.603507   1.239358   0.022620
O   10.713538   2.637188   0.033751
C    8.381105  -1.398511   0.021675
N    5.960102  -2.128361   0.008523
H    1.222199   1.955375   0.000869
H    1.303476  -0.984717   1.672256
H    1.322336  -0.953405  -1.724035
H    5.419357   4.054596   0.005064
H   10.289540   4.424775   0.031048
H    9.859986  -2.809116   0.029801

