%chk=mol_0294.chk
# wB97XD/Def2SVP opt freq pop=full gfinput

C 5 H 7 N 1

1 2
C    1.04433966  -0.01857999  -0.06231998
C    2.52990913   0.05855998   0.00496000
N    3.33996892  -0.63081974  -0.99098963
C    3.31352878   0.83318967  -1.02875960
C    4.48780823   1.53982949  -0.61688977
C    5.47385788   2.13627911  -0.27651989
H    0.60032976   0.74182975   0.58778977
H    0.69969976  -0.99979961   0.27917990
H    0.66518974   0.14211996  -1.07715964
H    2.90108895   0.01371999   1.02250957
H    2.76856899  -1.01253963  -1.74442935
H    2.77030873   1.26579964  -1.86304927
H    6.35238743   2.65624905   0.02451999

