%chk=mol_3203.chk
# wB97XD/Def2SVP opt pop=full gfinput

C 6 H 8 O 1

1 2
C    1.912252  -0.055482   0.450473
C    4.762110   0.000000   0.000000
O    5.195254  -1.207327  -2.391486
C    7.558375  -2.072066  -2.969005
C    9.711643  -1.863572  -1.664074
C    5.672996   2.572238   0.000000
C    6.423746   4.692322   0.000000
H    1.412854   0.808141   2.263438
H    1.218231  -2.006020   0.436867
H    0.895390   0.947962  -1.050272
H    5.643497  -1.111650   1.511535
H    7.494143  -3.021086  -4.787035
H    9.849517  -0.894502   0.133698
H   11.446771  -2.655708  -2.421212
H    7.097414   6.589815  -0.017310

