%chk=mol_1654.chk
# wB97XD/Def2SVP opt pop=full gfinput

C 7 H 8

1 2
C    4.717871  -1.987330   1.111990
C    3.937112   0.337600   0.501099
C    5.550881   2.508895   0.246175
C    4.787602   4.855198  -0.367023
C    6.936221   6.531158  -0.442158
C    9.034932   5.232935   0.122927
C    8.377836   2.516019   0.625405
H    3.367360  -3.525700   1.264699
H    6.684509  -2.435611   1.474402
H    1.930091   0.640787   0.164803
H    2.876749   5.454165  -0.754700
H    6.825369   8.518300  -0.889324
H   10.923335   6.000145   0.210421
H    9.333470   1.273751  -0.724389
H    8.891313   1.987803   2.558217

