%chk=mol_5933.chk
# wB97XD/Def2SVP opt pop=full gfinput

C 5 H 9 N 1 O 1

1 2
O    1.480204   0.190522  -0.125591
C    4.115634   0.033769   0.523360
C    5.749189  -1.651545  -1.090107
C    4.844181  -2.707089  -3.556257
C    5.150902  -0.517596  -5.440049
N    4.990427   1.834773  -3.950284
C    5.890371   1.164846  -1.387248
H    1.323640   1.074272  -1.740476
H    4.610459   0.202749   2.504851
H    7.325051  -2.640174  -0.254206
H    5.968435  -4.342648  -4.139294
H    2.864315  -3.295569  -3.418987
H    7.023545  -0.630072  -6.320813
H    3.726200  -0.575308  -6.935654
H    6.101453   3.183281  -4.764378
H    7.556694   2.138641  -0.695684

