%chk=mol_3466.chk
# wB97XD/Def2SVP opt pop=full gfinput

C 5 H 10 O 2

1 2
C    3.136719   4.475306  -2.518740
O    5.753536   3.974132  -2.164870
C    6.259756   3.087321   0.355439
C    9.123824   2.704670   0.677675
O   10.049809   1.170024  -1.335923
C   10.564665   5.150581   0.614577
C   12.005921   6.022274   2.503849
H    2.850916   5.081341  -4.471980
H    2.519799   5.992832  -1.258747
H    2.018681   2.769261  -2.183522
H    5.296921   1.267874   0.591711
H    5.531398   4.436057   1.749527
H    9.479358   1.699147   2.451768
H    9.194330   1.803271  -2.845247
H   10.409972   6.259907  -1.109591
H   12.243914   4.978294   4.254605
H   13.007287   7.805212   2.320244

