%chk=mol_6387.chk
# wB97XD/Def2SVP opt freq pop=full gfinput

C 4 H 8 N 2 O 1

1 2
O    2.07860923   0.65593976   2.55834913
N    2.94041896   0.52633977   1.46256936
C    2.98823881   1.65904939   0.83443969
C    3.81691861   1.83164930  -0.41310984
N    4.72437811   2.96437883  -0.19166993
C    6.10563803   2.56691909   0.06959997
C    5.69874763   3.12990880  -1.26750946
H    2.13082933  -0.22504991   2.97270870
H    2.40306926   2.53379893   1.17192960
H    3.12685871   2.07420921  -1.22883952
H    4.32131815   0.88851970  -0.65594977
H    6.34728718   1.51300943   0.13742995
H    6.66158772   3.20761895   0.74339968
H    5.97661781   4.15232849  -1.49357939
H    5.64963770   2.46412897  -2.11929917

