%chk=mol_6295.chk
# wB97XD/Def2SVP opt freq pop=full gfinput

C 4 H 8 N 2 O 1

1 2
O    2.89119887  -1.06014955   0.63127977
C    2.39314914   0.01412999   0.32622987
N    3.08341885   1.14875948   0.00225000
C    4.52038860   1.14814961  -0.13677995
C    5.02632809   2.54992890   0.00916000
C    5.98612785   3.13318896  -0.99372965
N    4.59405851   3.57695866  -0.94634968
H    1.30367959   0.17163993   0.28859991
H    2.58563900   1.93121934  -0.40470985
H    4.75314856   0.72767973  -1.12155962
H    4.96779776   0.49728981   0.62199980
H    5.09297800   2.85984874   1.04544961
H    6.26584768   2.54508901  -1.85900927
H    6.73352718   3.83530855  -0.64693975
H    4.52566814   4.48978806  -0.49075982

