%chk=mol_1248.chk
# wB97XD/Def2SVP opt freq pop=full gfinput

C 6 H 11 N 1

1 2
C    1.36679947   0.34499988   0.09647996
C    2.82924891   0.01828999  -0.21982992
C    2.90794897  -0.69669974  -1.54786944
C    3.33577871  -1.95681918  -1.70889938
N    3.57959867   1.28489959  -0.28437990
C    4.25942850   1.63222933   0.96246964
C    5.03080797   1.11931956  -0.22342992
H    1.27604949   0.84971964   1.06516957
H    0.76386970  -0.56946975   0.14357994
H    0.92026967   0.99693960  -0.66477978
H    3.20386863  -0.64314973   0.57415980
H    2.59892893  -0.12770995  -2.42279887
H    3.66064858  -2.56128907  -0.86789966
H    3.37384868  -2.40581918  -2.69637895
H    4.14808846   0.98399961   1.82266927
H    4.31914806   2.68947911   1.18779957
H    5.60434818   1.82907927  -0.80725968
H    5.43744802   0.11614995  -0.18800993

