%chk=mol_1987.chk
# wB97XD/Def2SVP opt freq pop=full gfinput

C 7 H 8

1 2
C    2.04068923  -0.75309974  -1.21724951
C    2.27144909   0.02338999  -0.14791994
C    1.53928947  -0.22320992   1.05340958
C    0.92625970  -0.42912984   2.06426930
C    3.27478862   1.09750962  -0.08316997
C    3.33615875   2.14024925  -1.17363954
C    2.83259892   2.51556897   0.18751992
H    2.59498906  -0.61208975  -2.13871908
H    1.29812956  -1.54453945  -1.19804955
H    0.38266987  -0.61140972   2.96212888
H    4.22132826   0.78760970   0.35156986
H    2.61465907   2.10793924  -1.98219919
H    4.31413841   2.50115895  -1.47109950
H    3.46771860   3.12926865   0.81594974
H    1.77405930   2.72598886   0.29364988

