%chk=mol_0124.chk
# wB97XD/Def2SVP opt pop=full gfinput

C 5 H 10

1 2
C    1.751965  -0.225955   0.010942
C    4.568205   0.009127   0.002702
C    5.881395   2.189758   0.000321
C    4.693739   4.771067   0.007994
C    8.726453   2.188756  -0.009052
H    1.217777  -2.224189  -0.011395
H    0.928422   0.658759  -1.665699
H    0.943427   0.618281   1.715512
H    5.593249  -1.774831  -0.001739
H    2.627967   4.710445   0.008938
H    5.284184   5.831600  -1.667683
H    5.285980   5.821906   1.689132
H    9.509215   0.273708  -0.007616
H    9.447781   3.164516   1.666077
H    9.436404   3.157657  -1.692987

