%chk=mol_5500.chk
# wB97XD/Def2SVP opt freq pop=full gfinput

C 5 H 9 N 1 O 1

1 2
N    1.01894963   0.03113999   0.32310987
C    2.46985912   0.01187000   0.08719996
C    2.89098907  -1.29921949  -0.61256981
C    2.76979899  -0.99333960  -2.07402921
O    3.87697840  -0.30572990  -2.66275907
C    2.76128912   0.48744980  -2.24941921
C    2.87703896   1.12749958  -0.89995968
H    0.75999975   0.90483963   0.77974969
H    0.76925975  -0.71444970   0.97131962
H    2.97504902   0.12882996   1.05231953
H    2.26819921  -2.15109921  -0.31964988
H    3.93068838  -1.54390943  -0.36453986
H    2.12457919  -1.62233937  -2.66374898
H    2.10972929   0.95390964  -2.96882892
H    3.91348863   1.43520951  -0.71733975
H    2.24420929   2.01718926  -0.81323969

