%chk=mol_6425.chk
# wB97XD/Def2SVP opt freq pop=full gfinput

C 5 H 7 N 1 S 1

1 2
C    0.88108969   0.06227998  -0.00992000
C    2.36409926   0.06510998  -0.00025000
C    3.25635886   1.11770952   0.00788000
C    4.60604811   0.63896972   0.01546999
C    5.82948780   1.48398948   0.02565999
N    4.75072813  -0.68644971   0.01354000
S    3.25355887  -1.39457953   0.00198000
H    0.48878983   1.08449960  -0.00247000
H    0.48642981  -0.45385981   0.87141973
H    0.49840981  -0.43648985  -0.90640968
H    2.96864867   2.16066909   0.00846000
H    5.57553768   2.54872894   0.01192000
H    6.44921780   1.27331960  -0.85203964
H    6.42244768   1.28949952   0.92528963

