%chk=mol_5237.chk
# wB97XD/Def2SVP opt freq pop=full gfinput

C 6 H 11 N 1

1 2
C    1.01020956   0.00349000   0.05133998
C    2.52882910  -0.00156000  -0.05340998
C    3.23730898  -0.96519965  -1.06449950
C    4.73455811  -0.75289971  -0.85509968
C    4.74154806   0.77532971  -0.81220967
C    3.24631882   1.01248956  -1.00753963
N    2.82478881   0.05626998  -2.11486912
H    0.67522973   0.85829967   0.64804977
H    0.66200972  -0.90863961   0.54713976
H    0.51602978   0.06354997  -0.92343962
H    2.94169879  -0.03465999   0.96492964
H    2.84999895  -1.97697926  -1.18589950
H    5.09019852  -1.19366956   0.08176997
H    5.33190775  -1.14443958  -1.68501937
H    5.34152794   1.20700955  -1.62026942
H    5.10228777   1.16014957   0.14695995
H    2.86781907   2.03273916  -1.07121968
H    3.41866875   0.07716997  -2.94320893

