%chk=mol_5082.chk
# wB97XD/Def2SVP opt pop=full gfinput

C 5 H 8 N 2

1 2
C    2.576452   0.368856   0.934753
C    5.043282  -0.200046  -0.310028
C    6.553098   1.895471  -1.500821
C    7.512417   0.707400   0.896222
N    9.195936  -1.461023   0.818799
C    7.969939  -3.267563  -0.315849
N    5.546138  -2.823931  -1.142491
H    2.498936   2.311683   1.643174
H    2.258393  -0.904631   2.533707
H    1.026254   0.117938  -0.411186
H    5.836476   3.809839  -1.384697
H    7.572038   1.510949  -3.235325
H    7.580410   1.896680   2.556308
H    8.690189  -5.198844  -0.596757
H    4.282327  -4.226694  -0.822106

