%chk=mol_1678.chk
# wB97XD/Def2SVP opt freq pop=full gfinput

C 6 H 13 N 1

1 2
C    2.07653928  -0.71237975  -1.27515960
N    1.79340935   0.41949984  -0.39979985
C    3.01141882   1.13141954   0.06232998
C    3.78839850   0.42433983   1.14970958
C    3.77865863   1.97668934  -0.93205965
C    2.91832876   2.65287900   0.09896997
C    3.53884888   3.47693872   1.17549956
H    2.60727906  -0.39987984  -2.17925930
H    1.13418949  -1.17596948  -1.58214939
H    2.66427898  -1.47949946  -0.76384968
H    1.16568959   1.05859971  -0.88688970
H    4.72093821   0.93878961   1.40043950
H    4.06191826  -0.58980978   0.84064966
H    3.18440890   0.35321987   2.06072927
H    3.44408894   2.00716925  -1.96253932
H    4.85646820   2.03590941  -0.83143973
H    1.99254918   3.10815907  -0.23749991
H    4.57835865   3.20085883   1.37667954
H    2.96792889   3.37668872   2.10372925
H    3.53050876   4.53309822   0.88653964

