%chk=mol_5741.chk
# wB97XD/Def2SVP opt pop=full gfinput

C 5 H 7 N 1 O 1

1 2
N    0.160287   2.290159   0.833199
C    2.457627   1.092866   0.934205
C    4.420712   1.450251  -0.618696
C    6.788841  -0.012151  -0.244549
O    7.027514  -1.625467   1.397528
C    8.847962   0.632378  -2.048765
C   11.072359  -0.568505  -1.936251
H   -1.291023   1.247654   1.548706
H   -0.262559   3.102099  -0.855347
H    2.585977  -0.252486   2.491679
H    4.331271   2.801689  -2.148486
H    8.512592   2.086711  -3.448391
H   11.433769  -2.030624  -0.538648
H   12.584688  -0.112854  -3.242165

