%chk=mol_4910.chk
# wB97XD/Def2SVP opt freq pop=full gfinput

C 4 H 9 N 1 O 2

1 2
C    1.37989950  -0.51399982   0.17606995
C    2.75668907  -0.08742997  -0.29532990
O    3.16526890   1.04477966   0.48592982
C    4.36826849   1.58142936   0.17497994
N    5.13685799   1.13706946  -0.75763971
O    6.29163790   1.93207932  -0.80183965
C    7.13326740   1.44547951  -1.83962929
H    1.02532959  -1.38095951  -0.38800985
H    0.66164970   0.30371988   0.05626998
H    1.39848948  -0.76789975   1.24108958
H    2.71394897   0.18789993  -1.35544944
H    3.46756864  -0.90916967  -0.15257993
H    4.58967781   2.44169903   0.82636970
H    8.02553749   2.07652926  -1.88641930
H    6.61614752   1.49481952  -2.80309892
H    7.43976736   0.41633984  -1.62753940

