%chk=mol_5064.chk
# wB97XD/Def2SVP opt freq pop=full gfinput

C 5 H 11 N 1 O 1

1 2
C    1.14216959  -1.09941959   0.74654973
N    2.21923900  -0.38891986   0.05316998
C    3.11618900  -1.36203945  -0.58013982
C    1.70010936   0.54357982  -0.96756965
C    0.96387964   1.73675931  -0.36044988
C    0.55156976   2.73058891  -1.41604948
O    0.65458977   2.55258918  -2.62512898
H    0.52818978  -0.41009983   1.33470953
H    1.55463934  -1.81960928   1.46305943
H    0.49022982  -1.64265931   0.05263998
H    3.54240870  -2.03874922   0.16938995
H    3.96258855  -0.85440969  -1.05662954
H    2.60273886  -1.96516919  -1.33809960
H    1.05088961   0.01824999  -1.68138945
H    2.54544902   0.93704969  -1.54873943
H    1.60934937   2.26233935   0.35223988
H    0.05234998   1.42921937   0.16027993
H    0.10180996   3.66151857  -1.02697957

