%chk=mol_2534.chk
# wB97XD/Def2SVP opt pop=full gfinput

C 6 H 6 O 1

1 2
C    1.673693   0.271988   0.004384
C    4.182965   0.045070  -0.003685
O    5.812438   2.122578  -0.014683
C    8.267098   1.168153  -0.021108
C    8.382504  -1.355538  -0.015156
C    5.776364  -2.192139  -0.003609
C    5.058060  -4.614862   0.005367
H    0.806894   2.128777   0.002683
H    0.436754  -1.358108   0.012699
H    9.750779   2.554834  -0.029952
H   10.046144  -2.525090  -0.018217
H    3.080839  -5.153548   0.014022
H    6.434858  -6.134278   0.004422

