%chk=mol_1403.chk
# wB97XD/Def2SVP opt pop=full gfinput

C 6 H 13 N 1

1 2
C   -0.111399  -0.496922   1.629076
C    2.727876  -0.936756   1.601184
C    4.171060   1.534439   1.203038
N    6.889205   1.028994   1.175958
C    8.324074   3.350976   0.778397
C   11.085549   2.736191   0.793326
C   12.676358   3.204579  -1.119549
H   -1.110932  -2.283148   1.931716
H   -0.756741   0.301600  -0.168696
H   -0.648516   0.803871   3.146791
H    3.185058  -2.281410   0.093598
H    3.294019  -1.807315   3.393306
H    3.711441   2.853241   2.735039
H    3.583525   2.400425  -0.586987
H    7.296100  -0.196286  -0.254962
H    7.949776   4.695743   2.307923
H    7.780626   4.247103  -1.008037
H   11.815041   1.862382   2.506627
H   12.041921   4.077953  -2.863823
H   14.662631   2.710510  -0.972340

