%chk=mol_3675.chk
# wB97XD/Def2SVP opt freq pop=full gfinput

C 5 H 10 O 2

1 2
O    2.27645922  -0.35594988  -1.36959946
C    2.36848927   0.10375997  -0.01906999
C    3.17108893   1.40362954  -0.01002000
O    4.41887856   1.19615960  -0.71745974
C    2.37886906   2.66732883  -0.45233983
C    3.07816887   3.43173862   0.68708974
C    3.30844855   2.07663918   1.38195956
H    1.79377925  -1.20117962  -1.34435952
H    2.87784886  -0.66697979   0.56878978
H    1.35759950   0.24160992   0.37754986
H    4.13130856   0.74364972  -1.53609943
H    1.29196954   2.59231901  -0.33139986
H    2.59544897   3.03881884  -1.45788944
H    4.00440836   3.92967868   0.37797987
H    2.45568919   4.14529848   1.23239946
H    4.28070831   1.96819925   1.87072933
H    2.52249908   1.80741930   2.09723926

