%chk=mol_3678.chk
# wB97XD/Def2SVP opt freq pop=full gfinput

C 5 H 10 O 2

1 2
O    2.79609895   4.00852871  -1.00123954
C    2.92222881   2.84787893  -1.81679928
C    3.28077888   1.63978934  -0.95657963
C    4.64738846   1.76890934  -0.34716988
C    5.53942776   0.55901980  -0.22683991
C    5.88572741   1.65138936  -1.19699955
O    6.99329710   2.48488903  -0.82660973
H    2.65503907   4.76030779  -1.60318947
H    3.68491864   3.03514886  -2.57906890
H    1.96119928   2.67937899  -2.31331897
H    3.21966863   0.73470974  -1.57060945
H    2.55457902   1.53700936  -0.14358994
H    4.65123844   2.48706913   0.46673980
H    5.20343781  -0.38567984  -0.64058977
H    6.14566755   0.45327982   0.66575974
H    5.76735783   1.43243945  -2.25256920
H    6.90836716   2.82477880   0.07925997

