%chk=mol_7054.chk
# wB97XD/Def2SVP opt freq pop=full gfinput

C 6 H 11 N 1

1 2
C    1.71990931  -0.10590996   0.45154983
C    2.61385894   0.10145997  -0.77859974
C    2.11630917  -0.57896978  -2.04032922
C    0.98547959  -1.27634954  -2.21674895
C    2.83318901   1.58653939  -0.98638964
C    4.03373861   2.27483916  -0.38261986
N    3.94990849   2.04438925  -1.81979930
H    2.16047907   0.37261984   1.33311951
H    1.59584939  -1.17002952   0.67894977
H    0.72702968   0.33481985   0.30590990
H    3.58034873  -0.36757988  -0.54592979
H    2.78682899  -0.47706982  -2.89481902
H    0.26277989  -1.43289936  -1.42409945
H    0.76040971  -1.71573937  -3.18439889
H    1.90809917   2.14330935  -1.08540964
H    4.77247858   1.68204939   0.14273995
H    3.93429852   3.29937887  -0.04803998
H    3.69353867   2.89877892  -2.31811905

