%chk=mol_3144.chk
# wB97XD/Def2SVP opt freq pop=full gfinput

C 6 H 10 O 1

1 2
C    1.37456954   2.88955879   0.00161000
C    2.63174891   2.49834895  -0.20599993
O    3.16871881   1.43491948   0.46819985
C    4.53769827   1.18121958   0.09241997
C    5.61829805   2.12220907   0.69051975
C    6.51760769   0.88328969   0.85113966
C    5.23029804   0.03914998   0.88074964
H    0.95442963   3.73182869  -0.53616983
H    0.74311972   2.37077904   0.71549976
H    3.28504872   2.99504900  -0.91100967
H    4.64214849   1.03325963  -0.99273962
H    5.33014822   2.59009910   1.63906944
H    6.00187778   2.89206910   0.01580999
H    7.15415764   0.68508971  -0.01865999
H    7.12874746   0.85186970   1.75630939
H    5.29083776  -0.92293966   0.36512986
H    4.82461834  -0.12073996   1.88656926

