%chk=mol_5603.chk
# wB97XD/Def2SVP opt freq pop=full gfinput

C 6 H 11 N 1

1 2
C    1.01255965   0.03121999   0.27542987
C    2.52508903   0.00447000   0.04427999
C    2.95909882  -1.30146956  -0.65103978
C    2.78148890  -1.01371968  -2.11460924
N    3.80843854  -0.35195988  -2.89899874
C    2.78019905   0.47651982  -2.29563928
C    2.95639896   1.10722959  -0.94634968
H    0.70942974   0.97763962   0.73690975
H    0.70982975  -0.78176969   0.94481963
H    0.45148984  -0.07935997  -0.65964973
H    3.02553892   0.12231995   1.01170969
H    2.36463904  -2.16187906  -0.32812986
H    4.01253843  -1.51657939  -0.43250984
H    2.02921915  -1.60090935  -2.62209916
H    4.69120789  -0.28945988  -2.39029932
H    2.02695918   0.92372966  -2.92873883
H    4.00961828   1.36968958  -0.78308970
H    2.36071920   2.01803923  -0.83597970

