%chk=mol_2167.chk
# wB97XD/Def2SVP opt pop=full gfinput

C 6 H 10 O 1

1 2
C    2.045742  -0.050153   0.094524
C    1.480752   0.855970   2.721678
C    0.026607  -0.800526   4.526990
C    2.785929  -0.292435   4.977199
C    4.561572   0.868594  -0.816059
C    6.795871  -0.884165  -1.014670
O    5.333015  -0.190295  -3.189140
H    1.956396  -2.120254   0.001134
H    0.572663   0.663577  -1.176487
H    1.097628   2.868831   2.770131
H   -0.511058  -2.684394   3.929534
H   -1.331482   0.097963   5.769202
H    3.290788   0.951553   6.525886
H    4.105128  -1.831730   4.677923
H    4.867217   2.871061  -0.538799
H    6.619333  -2.804769  -0.336957
H    8.672823  -0.087475  -0.848544

