%chk=mol_2072.chk
# wB97XD/Def2SVP opt pop=full gfinput

C 5 H 6 N 2

1 2
N    2.028337  -0.577292   0.688295
C    4.570851  -0.025511   0.568505
C    5.770317   2.150489   0.000000
C    4.391837   4.477290  -0.547510
C    5.390992   6.663817  -1.352194
C    8.427272   2.150489   0.000000
N   10.602365   2.150489   0.000000
H    1.612919  -2.431340   0.376207
H    0.890571   0.601216  -0.316057
H    5.691855  -1.695614   1.033000
H    2.359172   4.433430  -0.245551
H    7.395916   6.921046  -1.702568
H    4.184421   8.292024  -1.685107

