%chk=mol_6672.chk
# wB97XD/Def2SVP opt freq pop=full gfinput

C 3 H 7 N 1 O 2 S 1

1 2
N    0.94540966   0.30614990  -0.14225996
S    2.55823898  -0.16084993  -0.05090998
O    2.66376901  -0.88794965   1.19364953
O    2.83642888  -0.77471972  -1.32893956
C    3.39768863   1.43261945   0.08435997
C    4.87671804   1.20151961   0.22576991
C    5.80489779   1.74406934  -0.57374984
H    0.55804974   0.01981999  -1.04383957
H    0.43261984  -0.07504997   0.65535975
H    3.00951886   1.93223929   0.97650963
H    3.15084887   2.01239920  -0.80953968
H    5.19625807   0.55207980   1.04041970
H    5.54262781   2.39597917  -1.40182948
H    6.86004734   1.53537941  -0.41912985

