%chk=mol_6396.chk
# wB97XD/Def2SVP opt freq pop=full gfinput

C 4 H 8 N 2 O 1

1 2
O    1.86734927  -0.33839989   1.44000947
N    2.57055902  -0.06394997   0.26240990
C    3.30232882   0.98568964   0.44400984
N    4.11988831   1.51989949  -0.50825983
C    5.20852804   2.39590907  -0.10492996
C    5.79002810   3.38167882  -1.07854962
C    4.98723793   3.86846852   0.09227996
H    1.34776950  -1.12610960   1.19354963
H    3.31791854   1.53373945   1.40378952
H    4.21726847   0.93483961  -1.33126950
H    5.91670799   1.90406919   0.55950981
H    5.34426832   3.46058869  -2.06325912
H    6.86215734   3.53901863  -1.06077957
H    5.51361752   4.35618830   0.90413970
H    3.99945855   4.26996851  -0.10333996

