%chk=mol_7109.chk
# wB97XD/Def2SVP opt freq pop=full gfinput

C 6 H 9 N 1

1 2
C    0.96722960   0.00090000  -0.00016000
C    2.46757913  -0.01462999   0.00112000
C    3.15074897  -1.16945946   0.00871000
C    3.18499875   1.21762955   0.00000000
C    3.78007841   2.24833918   0.00000000
C    4.50207806   3.49887872   0.00000000
N    3.57328868   4.61899853  -0.04806998
H    0.57573974   1.02330959   0.04259998
H    0.57358980  -0.53934979   0.86742967
H    0.57826978  -0.46494985  -0.91208965
H    2.63847923  -2.12612915   0.01191000
H    4.23654842  -1.18873954   0.01269000
H    5.17677832   3.55098867  -0.86105967
H    5.11759806   3.58467865   0.90126967
H    3.01466894   4.54545832  -0.89662969
H    4.10134840   5.48512793  -0.12450995

