%chk=mol_4227.chk
# wB97XD/Def2SVP opt pop=full gfinput

C 6 H 11 N 1

1 2
C   -2.367184  -1.448929  -0.967880
C   -2.371247   1.447549  -0.957638
C   -0.002305   2.077036   0.580335
C    2.375820   1.453691  -0.942558
C    2.380356  -1.444167  -0.950022
C    0.002797  -2.082025   0.567277
N    0.034922  -0.007370   2.428789
H   -2.299098  -2.213984  -2.888201
H   -4.074986  -2.162791  -0.038135
H   -4.080694   2.150225  -0.021656
H   -2.307601   2.226494  -2.872988
H   -0.002343   3.972167   1.396697
H    4.079427   2.162773  -0.000113
H    2.320036   2.229726  -2.859647
H    4.084832  -2.152511  -0.009260
H    2.328634  -2.210583  -2.870494
H    0.006765  -3.982201   1.373094
H   -1.595061  -0.013190   3.458539

