%chk=mol_4227.chk
# wB97XD/Def2SVP opt freq pop=full gfinput

C 6 H 11 N 1

1 2
C   -1.25265956  -0.76673973  -0.51217979
C   -1.25480950   0.76600969  -0.50675982
C   -0.00122000   1.09911966   0.30709988
C    1.25722957   0.76925975  -0.49877980
C    1.25962961  -0.76421976  -0.50272983
C    0.00148000  -1.10175955   0.30018988
N    0.01847999  -0.00390000   1.28525949
H   -1.21662951  -1.17158961  -1.52836943
H   -2.15638924  -1.14449954  -0.02017999
H   -2.15940928   1.13784957  -0.01146000
H   -1.22112954   1.17820966  -1.52031946
H   -0.00124000   2.10197926   0.73909974
H    2.15873909   1.14448953  -0.00006000
H    1.22770953   1.17991948  -1.51325941
H    2.16159940  -1.13905954  -0.00490000
H    1.23225963  -1.16978955  -1.51899934
H    0.00358000  -2.10728931   0.72660977
H   -0.84406972  -0.00698000   1.83017933

