%chk=mol_1340.chk
# wB97XD/Def2SVP opt freq pop=full gfinput

C 5 H 12 N 2

1 2
C    0.63334978  -1.06426954   0.26040989
C    2.12371922  -0.91426963  -0.05384998
C    2.53796911  -1.94442928  -1.10665953
C    2.47402906   0.50211984  -0.54264981
N    2.19649911   1.51476943   0.48173982
N    2.47377896   2.79145908   0.12495995
C    2.15889907   3.65658855   1.03043962
H    0.32627988  -0.39352983   1.06942964
H    0.40604985  -2.08738923   0.57986981
H    0.01793999  -0.84122968  -0.61823976
H    2.69012904  -1.12557960   0.86218965
H    2.00422931  -1.78654933  -2.05043936
H    2.32351923  -2.96189880  -0.76214975
H    3.61246872  -1.88179922  -1.31033945
H    1.90106928   0.73534977  -1.44910944
H    3.53813863   0.54486978  -0.80639970
H    2.67224884   1.24974954   1.34703958
H    2.34279919   4.72618818   0.84534967
H    1.70007932   3.39107871   1.99888933

