%chk=mol_6157.chk
# wB97XD/Def2SVP opt freq pop=full gfinput

C 4 H 5 N 1 O 2

1 2
O    1.39652956   0.39681986  -1.08803952
C    1.89140928   0.37818986   0.03362999
C    3.07305884   1.20542955   0.37286988
N    4.00220871   1.46974945  -0.74257976
C    3.21827888   2.58752918  -0.20388992
C    3.99261856   3.59443855   0.54643983
O    3.56554866   4.04889870   1.60011947
H    1.48569942  -0.25153992   0.84280968
H    3.53288865   1.00514960   1.33398950
H    3.57427859   1.13409960  -1.61495948
H    2.42212915   2.97356892  -0.82978970
H    4.94976854   3.92102838   0.10668996

