%chk=mol_1059.chk
# wB97XD/Def2SVP opt freq pop=full gfinput

C 6 H 12

1 2
C    2.68618894  -1.04123962   1.26128960
C    3.25473857  -0.41996983  -0.00457000
C    3.15609884   1.07858956   0.02863999
C    4.21521854   1.90038919  -0.03572999
C    4.11589813   3.39865875  -0.01362999
C    4.85874796   3.98616862   1.17591953
H    2.76468897  -2.13211918   1.21423960
H    1.62889934  -0.78470975   1.38901949
H    3.22950888  -0.70037973   2.14881921
H    2.69899893  -0.78907973  -0.87334967
H    4.29486847  -0.74183971  -0.12875995
H    2.15316916   1.49676955   0.10014996
H    5.21677828   1.48245943  -0.11881995
H    3.06937885   3.72289872   0.01853999
H    4.54497814   3.79296851  -0.94190961
H    4.44022846   3.62481856   2.12165928
H    4.78228807   5.07807827   1.16713953
H    5.92122746   3.72212863   1.15025961

