%chk=mol_3691.chk
# wB97XD/Def2SVP opt pop=full gfinput

C 6 H 6 O 1

1 2
O    1.562898   0.683325  -0.066254
C    3.855136   0.400414  -0.072565
C    5.538088   2.540151  -0.002476
C    6.962998   4.303833   0.048150
C    8.685616   6.394701   0.101233
C    8.986857   7.967123  -2.252459
C    7.646456   9.041924   0.004290
H    4.775961  -1.465067  -0.131997
H   10.369797   6.116798   1.241966
H    7.859806   7.511945  -3.902530
H   10.857289   8.677887  -2.691745
H    8.607476  10.486374   1.093906
H    5.618005   9.306580  -0.121075

