%chk=mol_3633.chk
# wB97XD/Def2SVP opt freq pop=full gfinput

C 6 H 10 O 1

1 2
O    0.78414965   0.27327991  -0.03179999
C    1.98433924   0.17092994   0.20400992
C    2.99936891   1.27092946  -0.02354999
C    2.37046909   2.65960908  -0.17094994
C    3.32422876   3.59485888   0.55451977
C    3.77544856   2.76412892   1.74271929
C    3.97865844   1.37377942   1.15480959
H    2.40312910  -0.79870969   0.52501976
H    3.55407882   1.00335968  -0.93164968
H    1.38048947   2.70917916   0.29877990
H    2.24955916   2.94193912  -1.22129953
H    4.17952824   3.83928847  -0.08683997
H    2.84266877   4.52927876   0.85669971
H    4.68583870   3.15644884   2.20505905
H    2.98841882   2.73840880   2.50585914
H    5.00516844   1.28383946   0.77972972
H    3.83990860   0.59808975   1.91561937

