%chk=mol_6752.chk
# wB97XD/Def2SVP opt freq pop=full gfinput

C 5 H 10 N 2

1 2
C    1.23290956  -0.23702991  -0.38077986
C    2.63238907  -0.01897999   0.07720996
C    3.79161859  -0.54141980  -0.74313974
N    3.56350851   0.89103967  -0.58064979
C    3.13929892   1.65824938  -1.64665949
C    2.22796917   2.82737875  -1.34854949
N    3.48969865   1.48743939  -2.88189888
H    0.58475977   0.56623983  -0.01736999
H    0.85421968  -1.18187952   0.02264999
H    1.14717960  -0.28297988  -1.47131944
H    2.72608900  -0.01259000   1.15580952
H    3.58370876  -0.96399969  -1.71585941
H    4.67377806  -0.89154971  -0.22719993
H    2.08299923   2.94823885  -0.27173990
H    1.25830948   2.65899897  -1.82574928
H    2.66789889   3.74360847  -1.75289941
H    4.15689850   0.71457976  -2.93174887

