%chk=mol_3627.chk
# wB97XD/Def2SVP opt freq pop=full gfinput

C 5 H 8 O 2

1 2
O    0.95385969   0.67338973   0.88678962
C    1.97030926   0.37703988  -0.05870998
C    3.11501884   1.29684949   0.18475993
C    3.80939865   1.99926925  -0.95375961
C    2.93510890   2.78795886  -0.00796000
C    3.51897883   3.71934867   0.98817962
O    4.70670843   3.69108868   1.29040945
H    0.24664991   0.02020999   0.75067967
H    1.55405939   0.49618980  -1.06425953
H    2.28467917  -0.66325974   0.07116998
H    3.71741867   0.97077960   1.02639961
H    3.44921875   1.84783936  -1.96445930
H    4.88530827   2.12680912  -0.88595968
H    1.97113931   3.11335874  -0.38691986
H    2.81994891   4.43563843   1.45005941

