%chk=mol_4913.chk
# wB97XD/Def2SVP opt freq pop=full gfinput

C 4 H 7 N 1 O 2

1 2
C    2.75166893   3.10300899  -1.12675965
C    2.26306915   1.97732925  -0.59651983
O    2.92922878   0.92094970  -0.04464998
C    4.36082840   0.95072961  -0.04126998
O    4.89011812   1.88274932   0.90825969
N    6.29539728   1.84791934   0.84818971
C    6.76305771   2.63175893   1.75918937
H    2.07483912   3.85148859  -1.52772939
H    3.81137872   3.32611871  -1.17173958
H    1.19558954   1.78558934  -0.55129975
H    4.74672794   1.15610957  -1.04816961
H    4.69335842  -0.05296998   0.24532990
H    7.85143709   2.74511886   1.87960923
H    6.11968756   3.20886898   2.44446921

