%chk=mol_0619.chk
# wB97XD/Def2SVP opt freq pop=full gfinput

C 5 H 8 O 1

1 2
C    0.99360961   0.00124000   0.03274999
C    2.51106906  -0.00145000  -0.11978995
C    3.03196883  -1.25144947  -0.84082973
C    3.41845870  -0.69392979  -2.15697908
C    3.32434869   0.62803978  -2.09787917
O    2.89062905   1.15685964  -0.90178967
H    0.66360974   0.92136961   0.52801979
H    0.65236974  -0.85528970   0.62265974
H    0.49629983  -0.02399999  -0.94383967
H    2.97154880   0.08931997   0.87054968
H    2.28010917  -2.04168916  -0.92131966
H    3.91244841  -1.66014934  -0.33354989
H    3.75762868  -1.26538956  -3.00667882
H    3.56263852   1.35544944  -2.85631895

