%chk=mol_4925.chk
# wB97XD/Def2SVP opt pop=full gfinput

C 5 H 11 N 1 O 1

1 2
C    4.500893   2.015941  -2.620918
C    6.208582   2.549600  -0.385051
O    8.668551   3.156580  -1.309297
N   10.227594   3.709306   0.762316
C   12.443563   4.312185  -0.067784
C   14.524718   5.018262   1.729572
C   16.674868   3.134073   1.536631
H    2.591552   1.536555  -1.992319
H    5.245728   0.450454  -3.750350
H    4.398923   3.663347  -3.868817
H    6.322778   0.881841   0.836544
H    5.465976   4.144226   0.707513
H   12.892921   4.337281  -2.106270
H   13.793224   5.078506   3.663839
H   15.193133   6.908744   1.221273
H   16.030376   1.222747   1.998272
H   18.197289   3.640463   2.841033
H   17.452944   3.088304  -0.380402

