%chk=mol_4502.chk
# wB97XD/Def2SVP opt freq pop=full gfinput

C 4 H 10 N 2 O 1

1 2
C    1.41435945  -0.33947989  -1.21043944
C    2.38109922  -0.35792989  -0.03456999
C    3.02752876   1.00211966   0.20654991
N    3.89706850   1.38775945  -0.88617969
C    4.23238850   2.69669890  -1.06971967
N    5.12344790   2.85386872  -2.08102918
O    3.80274868   3.64722872  -0.43559983
H    0.93362963  -1.31661952  -1.31967950
H    1.93205917  -0.11340995  -2.14797926
H    0.63035977   0.40992987  -1.06148958
H    3.15204883  -1.11668956  -0.21308991
H    1.83431935  -0.65652972   0.86722970
H    3.64505863   0.96696967   1.11122954
H    2.26302910   1.77250922   0.35829985
H    4.62850809   0.73905975  -1.13876963
H    5.00693798   2.24245906  -2.87567878
H    5.28617811   3.82567859  -2.31444931

