%chk=mol_2076.chk
# wB97XD/Def2SVP opt freq pop=full gfinput

C 7 H 12

1 2
C    0.83051974  -0.12790994   0.13509996
C    2.31645894   0.00102000   0.24306992
C    3.07838893   1.08127964  -0.02601999
C    2.49464893   2.41922903  -0.41116986
C    4.55081844   1.05978966   0.11510996
C    5.35492802   0.01651999  -0.61905974
C    5.41130781   1.44721949  -1.06111956
H    0.58459979  -1.03021955  -0.43401983
H    0.35709986   0.71379972  -0.37457985
H    0.39158985  -0.22476992   1.13236964
H    2.82077885  -0.91006964   0.56270981
H    1.46655953   2.54890919  -0.06255998
H    2.51385903   2.54192901  -1.49860954
H    3.07594895   3.23319864   0.03603999
H    4.90336800   1.35042942   1.10096967
H    4.84379816  -0.68876970  -1.26534951
H    6.22248793  -0.39651984  -0.11731996
H    6.31828737   2.00628924  -0.86016971
H    4.94017839   1.69799936  -2.00499916

