%chk=mol_4217.chk
# wB97XD/Def2SVP opt freq pop=full gfinput

C 5 H 9 N 1 O 1

1 2
C    0.99286962  -0.01750999  -0.04234999
C    2.51630926   0.02648999  -0.04072998
O    3.00894880  -1.10261965  -0.78129971
N    3.29048872  -0.67306972  -2.10255909
C    3.31592870   0.61438978  -2.07794929
C    3.08052897   1.24165952  -0.75333971
C    4.40598869   1.71525931  -0.17825994
H    0.57439977   0.82588971   0.51550978
H    0.64040977  -0.94859964   0.41490984
H    0.59068978   0.00198000  -1.06142950
H    2.87638879  -0.05042998   0.99102962
H    3.53048849   1.23060966  -2.96266890
H    2.37431908   2.07258916  -0.82610971
H    5.14870787   0.90970963  -0.14419995
H    4.27101851   2.09688926   0.83904970
H    4.82656813   2.52024913  -0.79132968

