%chk=mol_3684.chk
# wB97XD/Def2SVP opt freq pop=full gfinput

C 5 H 8 O 2

1 2
O    2.49575901  -1.33776951   1.21502948
C    2.14943910  -0.16658993   1.32874954
C    2.97635865   1.00357962   0.86748964
C    4.31250811   0.60573983   0.25560990
C    5.29752779   1.76242936   0.04661998
O    6.05640745   1.36888957   1.21620953
C    5.37227774   0.08923996   1.24027956
H    1.17984951   0.09274996   1.78812933
H    3.12049866   1.65942943   1.73401928
H    2.37954926   1.55137944   0.13145995
H    4.19470835  -0.02358999  -0.63439977
H    4.88900805   2.77168894   0.14667994
H    5.90938759   1.70071936  -0.85876971
H    6.01703787  -0.70924973   0.85971969
H    5.02475834  -0.16402994   2.24490929

