%chk=mol_4232.chk
# wB97XD/Def2SVP opt freq pop=full gfinput

C 5 H 7 N 1 O 1

1 2
C    0.93689966  -0.06832998   0.01445999
C    2.45502901   0.02450999   0.00398000
C    2.93642879   1.43293953   0.00066000
N    3.15044880   2.07978916   1.15388954
O    3.58436871   3.34537888   0.79772973
C    3.62615871   3.44251871  -0.55274981
C    3.22558880   2.25743914  -1.11060953
H    0.62053978  -1.11621964   0.01248999
H    0.50434983   0.41952983  -0.86560965
H    0.51707983   0.41233984   0.90472966
H    2.84131885  -0.49468982  -0.88150966
H    2.85689878  -0.50498980   0.87612963
H    3.95332861   4.39453840  -0.94371969
H    3.15101886   2.02040911  -2.16074920

