%chk=mol_6244.chk
# wB97XD/Def2SVP opt freq pop=full gfinput

C 5 H 5 N 1 O 1

1 2
O    2.43375897  -0.75102973  -0.97958964
C    2.08705926   0.22844993  -0.33045986
C    0.73282975   0.37631989   0.16811992
N   -0.34394988   0.52524978   0.58139980
C    3.05911899   1.29446948   0.02799999
C    3.84042859   1.99218929  -1.06284952
C    2.79665899   2.74735904  -0.29430988
H    3.61052847   1.08048964   0.93882960
H    3.63025856   1.73480940  -2.09609938
H    4.88313818   2.22070909  -0.87177968
H    3.13240886   3.49369860   0.41818982
H    1.88804924   3.02283883  -0.81921971

