%chk=mol_4743.chk
# wB97XD/Def2SVP opt freq pop=full gfinput

C 5 H 9 N 1 O 1

1 2
C    1.68717945  -0.57495981  -1.07573962
C    2.92441893  -0.51681983  -0.19791992
N    3.31080866   0.84849972   0.09161997
C    4.09946871   1.57040942  -0.77047968
O    4.56987810   1.13134956  -1.81221926
C    4.32704830   2.96405888  -0.31038988
C    5.06159830   3.81004858  -1.04411960
H    1.40239954  -1.61409938  -1.26422954
H    1.86283934  -0.08697996  -2.03963923
H    0.84401971  -0.06885997  -0.59480977
H    3.75729847  -1.03329957  -0.68731976
H    2.73118901  -1.00931966   0.76055974
H    2.91054893   1.29399955   0.90443963
H    3.89108849   3.28208876   0.62701976
H    5.50694799   3.50235868  -1.98688924
H    5.23435831   4.82892799  -0.71586972

