%chk=mol_6354.chk
# wB97XD/Def2SVP opt freq pop=full gfinput

C 5 H 9 N 1 O 1

1 2
O    0.83859968   0.71039975   0.78893965
N    1.85099936   0.82830966  -0.17096993
C    2.96364880   1.11289954   0.42541984
C    4.23315859   1.29790950  -0.35949984
C    4.76685810   2.69318914  -0.23727991
C    5.90149784   3.00865889   0.70457971
C    6.13521767   3.01608872  -0.78074968
H    0.05949998   0.49433982   0.24318992
H    3.02693892   1.23033965   1.52164948
H    4.03966856   1.07302964  -1.41424942
H    4.95945787   0.56500983   0.01354999
H    3.99616838   3.44270873  -0.38766986
H    6.35041761   2.20627904   1.27896953
H    5.88686752   3.96354866   1.21841955
H    6.27123785   3.97487855  -1.26979959
H    6.72752762   2.21545911  -1.20839953

