%chk=mol_6885.chk
# wB97XD/Def2SVP opt freq pop=full gfinput

C 5 H 8 N 2

1 2
C    1.07345963  -0.01556999   0.09707996
C    2.56695914  -0.00847000   0.04808998
N    3.28179860  -1.09563959  -0.05145998
N    4.58984804  -0.70461971  -0.00411000
C    4.75644827   0.74650973  -0.14516994
C    3.36800861   1.23634946   0.08153997
C    2.92537904   2.47863913   0.29819989
H    0.69773972  -1.03499961  -0.02564999
H    0.67302972   0.60678977  -0.70695972
H    0.73514974   0.37215984   1.06209958
H    5.17402840  -1.23571956  -0.64977974
H    5.09031773   0.99364960  -1.15795946
H    5.46724796   1.12996960   0.59197980
H    3.61480856   3.31672859   0.31768990
H    1.87691927   2.69316888   0.46994981

