%chk=mol_7069.chk
# wB97XD/Def2SVP opt freq pop=full gfinput

C 6 H 7 N 1

1 2
C    1.40901959  -0.30507988  -1.08295965
C    2.28247905  -0.01338000  -0.10751996
C    3.05503893   1.28344953   0.00000000
C    2.66109920   2.02039933   1.26190948
C    2.08520937   3.23145890   1.29287958
C    4.47485828   1.02029967   0.00000000
N    5.60659790   0.81054974   0.00000000
H    0.89166969  -1.26074958  -1.09629965
H    1.18783963   0.39125985  -1.88667929
H    2.45857906  -0.75833970   0.66791975
H    2.81929898   1.91246927  -0.86902970
H    2.86835885   1.52241945   2.20886922
H    1.85367930   3.78350878   0.38670987
H    1.83269942   3.70091867   2.23979926

