%chk=mol_2015.chk
# wB97XD/Def2SVP opt pop=full gfinput

C 5 H 12 N 2

1 2
N    2.443095   5.377764  -2.998580
C    5.003107   5.580758  -1.992565
C    6.123695   2.966228  -1.471908
C    8.728815   3.166406  -0.361920
C   10.661854   1.143851  -0.889343
C   10.960657   3.723479  -2.036350
N   12.954091   5.389404  -1.118548
H    1.729458   7.143203  -3.289049
H    1.298374   4.540690  -1.695519
H    4.972569   6.708263  -0.255359
H    6.184129   6.595730  -3.358799
H    6.160847   1.860492  -3.223684
H    4.922453   1.935439  -0.133982
H    8.693459   3.958485   1.528373
H   10.165139  -0.396427  -2.148883
H   11.922565   0.589424   0.625065
H   10.616255   3.859218  -4.059359
H   13.290368   5.131098   0.758517
H   12.449629   7.237746  -1.323508

