%chk=mol_1044.chk
# wB97XD/Def2SVP opt freq pop=full gfinput

C 4 H 7 N 1 O 1

1 2
C    1.01230967  -0.03375999  -0.28150991
N    2.44550896   0.00264000  -0.08514997
C    3.19431877   1.15090966  -0.01294000
C    4.52679825   1.22885954  -0.07930997
C    5.19637823   2.53871894   0.01783999
O    6.41428757   2.64082909  -0.06430998
H    0.65169972  -1.06197965  -0.18641992
H    0.75226969   0.33273986  -1.27920949
H    0.50059980   0.57790983   0.46760982
H    2.94968891  -0.83693969  -0.36403987
H    2.58589911   2.04547930   0.11596996
H    5.16566801   0.36441988  -0.20178993
H    4.54347801   3.41479874   0.16506994

