%chk=mol_4097.chk
# wB97XD/Def2SVP opt freq pop=full gfinput

C 5 H 11 N 1 O 1

1 2
C    0.97106963   0.06669997   0.03411999
C    2.48367906  -0.05862998   0.00964000
N    3.15947890   0.96131963   0.84648967
C    4.15531874  -0.04168998   1.27334952
C    3.19649887  -1.18210948   0.83584970
C    2.42832899  -1.81161940   1.99100924
O    3.79496861  -2.24454904   0.05035998
H    0.51194984  -0.78835970  -0.47207981
H    0.65015978   0.97308964  -0.49002981
H    0.57064980   0.10967996   1.05164957
H    2.83492875  -0.02669999  -1.03219962
H    2.58615899   1.30775952   1.61725938
H    5.08973789   0.00897000   0.70102972
H    4.40869856  -0.00209000   2.33821917
H    1.98651922  -1.05758953   2.65133905
H    3.09175897  -2.43431926   2.60146904
H    1.61960936  -2.44932914   1.61848938
H    4.30425882  -1.79109931  -0.64375973

