%chk=mol_2788.chk
# wB97XD/Def2SVP opt freq pop=full gfinput

C 6 H 12 O 1

1 2
C    0.94585961  -0.12802994   0.15993993
C    2.45077896  -0.05885998   0.05194998
C    3.08623886  -1.42929947   0.05284998
C    3.15105891   1.09964955  -0.03413999
C    2.51008892   2.46431899  -0.13221996
C    4.66061831   1.17533958  -0.03075999
O    5.11819792   1.39658940  -1.35534954
H    0.48731983   0.81260967   0.47458979
H    0.65606976  -0.87112963   0.91189963
H    0.51177979  -0.42480984  -0.80031967
H    2.52721906  -2.10321927  -0.60667980
H    3.07409883  -1.85014927   1.06357956
H    4.11528826  -1.43302953  -0.31335989
H    1.45950949   2.43176913  -0.43042985
H    3.01830888   3.07179880  -0.89027965
H    2.58358908   2.98483896   0.82830966
H    5.14296770   0.27651989   0.36203989
H    5.00198841   2.00543928   0.59802973
H    4.62419844   0.78135973  -1.92356932

