%chk=mol_5257.chk
# wB97XD/Def2SVP opt pop=full gfinput

C 4 H 7 N 1 O 2

1 2
C    2.082044   2.961277   0.307288
N    4.242265   1.865519   0.052799
O    6.151096   3.706055   0.174327
C    8.533021   2.508063  -0.266055
C   10.547866   4.479029  -0.216449
C   12.149200   4.916670   2.094365
O   13.072899   3.509977  -0.033675
H    0.334425   1.832902   0.266754
H    1.875100   5.020039   0.566313
H    8.503711   1.596573  -2.124732
H    8.849928   1.064710   1.185312
H   10.210644   6.019231  -1.516448
H   11.730570   3.875356   3.805474
H   12.926464   6.784079   2.397061

