%chk=mol_0706.chk
# wB97XD/Def2SVP opt freq pop=full gfinput

C 5 H 6 O 1

1 2
C    0.99999964   0.00000000   0.00000000
C    2.44399905   0.00000000   0.00000000
C    3.63415861   0.00000000   0.00000000
C    5.07815790   0.00000000   0.00000000
C    5.62367821   1.40139949  -0.05890998
O    6.57485723   1.78733933   0.61454976
H    0.60599977   1.02087963   0.01164000
H    0.60591978  -0.52047980   0.87826967
H    0.60592973  -0.50031978  -0.88991970
H    5.46238804  -0.53746980  -0.87299967
H    5.46840811  -0.48961982   0.89801967
H    5.18121815   2.05967927  -0.82754970

