%chk=mol_6388.chk
# wB97XD/Def2SVP opt freq pop=full gfinput

C 4 H 3 N 1 O 2

1 2
O    0.95591962  -0.04508998   0.02077999
N    2.35713911  -0.05903998   0.01815999
C    2.85745907   1.13944960  -0.01587999
C    2.05720925   2.41209912  -0.03106999
O    2.55295897   3.46520877  -0.40366983
C    4.29879808   1.09248960  -0.02578999
C    5.49982786   1.05692959  -0.03385999
H    0.73771971  -0.99831963   0.02063999
H    1.02197969   2.32424927   0.33008990
H    6.56452751   1.02566957  -0.04400998

