%chk=mol_0401.chk
# wB97XD/Def2SVP opt pop=full gfinput

C 4 H 2 N 2

1 2
C    1.831541   0.019559  -0.000000
C    4.372902   0.000000   0.000000
C    5.701379  -2.300987   0.000000
N    6.788936  -4.184685   0.000000
C    5.740100   2.317050   0.000000
N    6.817319   4.225976  -0.000000
H    0.767304   1.777287  -0.000000
H    0.739714  -1.721219   0.000000

