%chk=mol_3226.chk
# wB97XD/Def2SVP opt pop=full gfinput

C 5 H 6 O 2

1 2
C    6.699325  -1.283483   0.190428
C    8.843446  -0.115009  -0.436319
O    9.317313   2.340256   0.251182
C   11.724126   3.339203   0.046771
C   13.880435   2.073426   0.485093
C   11.872034   6.095160  -0.531977
O   13.852883   7.275767  -0.746971
H    6.344812  -3.217089  -0.392213
H    5.262453  -0.333839   1.302324
H   10.296928  -1.007186  -1.562785
H   13.888315   0.099192   1.028578
H   15.705986   3.006214   0.354078
H   10.020707   7.022638  -0.764054

