%chk=mol_2369.chk
# wB97XD/Def2SVP opt pop=full gfinput

C 6 H 8 O 1

1 2
C    1.858943  -0.133207   0.400301
C    4.667378   0.147795  -0.132413
C    6.046387   2.160524   1.455732
C    7.721685  -0.026211   2.307677
O    6.085674  -1.856278   1.102164
C    5.242554   0.170907  -2.814728
C    5.733108   0.180903  -5.029828
H    1.490635  -0.289960   2.432059
H    1.086404  -1.831069  -0.500418
H    0.800148   1.502162  -0.301695
H    4.928614   3.011335   2.973333
H    7.027967   3.652368   0.415419
H    9.619329  -0.063911   1.487196
H    7.829589  -0.316019   4.350093
H    6.178592   0.168809  -6.995048

