%chk=mol_2001.chk
# wB97XD/Def2SVP opt pop=full gfinput

C 4 H 3 N 3

1 2
N    1.889726   0.000000   0.000000
C    4.064820   0.000000   0.000000
C    6.793584   0.000000   0.000000
C    7.844782   2.101867  -1.527201
N    9.204100   1.346449  -3.413223
N    9.204100  -1.353063  -3.410559
C    7.844594  -2.104153  -1.522855
H    7.598532   0.001833   1.899458
H    7.517463   4.093204  -1.041541
H    7.517500  -4.094432  -1.033850

