%chk=mol_4909.chk
# wB97XD/Def2SVP opt freq pop=full gfinput

C 4 H 10 N 2 O 1

1 2
C    2.54016900  -1.20179951  -0.21023992
C    3.89903855  -0.54335982  -0.07599997
O    3.70118856   0.87727964   0.00352000
C    4.75741816   1.71476936   0.08311997
N    5.98516798   1.34135950   0.11186996
N    4.33539820   2.99972892   0.11677995
C    5.21665812   4.10247850  -0.17152993
H    2.63863921  -2.28825927  -0.28433990
H    2.01894927  -0.83212972  -1.09927964
H    1.90872931  -0.96173966   0.65161973
H    4.51125860  -0.78073972  -0.95329964
H    4.39404821  -0.89516968   0.83527970
H    6.06791782   0.32910985   0.08459997
H    3.36752868   3.11828876  -0.15073994
H    6.08875799   4.09553862   0.49022982
H    4.68736792   5.04757786  -0.01884999
H    5.55635834   4.06491852  -1.21016955

