%chk=mol_2773.chk
# wB97XD/Def2SVP opt pop=full gfinput

C 6 H 8 O 1

1 2
C    1.862098  -0.353398   0.318627
C    4.632115  -0.544052  -0.304813
C    5.663131  -2.776518  -0.940044
C    6.205747   1.714360  -0.220304
C    5.412024   4.039932   0.398524
C    7.209551   6.173055   0.408672
O    6.532576   8.312470   0.974532
H    0.905689   0.941216  -0.982733
H    1.591849   0.323635   2.255747
H    0.908618  -2.185355   0.170775
H    4.534813  -4.489139  -1.018676
H    7.652654  -2.978851  -1.399815
H    8.186974   1.434359  -0.709535
H    3.486583   4.501838   0.912851
H    9.177172   5.734941  -0.117276

