%chk=mol_0354.chk
# wB97XD/Def2SVP opt freq pop=full gfinput

C 5 H 5 N 1

1 2
C    0.99072963  -0.02078999   0.02729999
C    2.51999903   0.00000000   0.00000000
C    3.00923872  -0.78818971  -1.15125966
C    3.41007853  -1.42871940  -2.08693933
C    3.00201893   1.36116946   0.00000000
N    3.38622880   2.44615912   0.00000000
H    0.60481977   0.51518983   0.90216964
H    0.61156976  -1.04842961   0.06930997
H    0.56449980   0.45266983  -0.86580968
H    2.87231898  -0.49345979   0.91495967
H    3.76904869  -1.98927927  -2.91910887

