%chk=mol_2406.chk
# wB97XD/Def2SVP opt freq pop=full gfinput

C 6 H 10 O 1

1 2
C    1.01914966   0.03239999   0.03469999
C    2.50414896   0.00000000  -0.01311000
C    3.29054880  -1.08257961  -0.07025997
C    4.73687792  -0.72181976  -0.07267997
O    5.29313803  -1.01751959   1.19622958
C    4.72022820   0.78592968  -0.32854986
C    3.31063867   1.26044953   0.03865998
H    0.59318978  -0.97557968  -0.00170000
H    0.62297976   0.59626973  -0.81558973
H    0.67769974   0.51017982   0.95825964
H    2.94296885  -2.10624909  -0.08938996
H    5.30123806  -1.25288951  -0.84416968
H    4.66060829  -0.70826977   1.86714923
H    4.89190817   0.97956961  -1.39550948
H    5.48470831   1.32669950   0.23907991
H    2.95456886   2.01006913  -0.67456979
H    3.28558874   1.68728936   1.04696953

