%chk=mol_5668.chk
# wB97XD/Def2SVP opt pop=full gfinput

C 4 H 4 N 2 O 1

1 2
N    2.006700  -0.095696  -0.008920
C    4.201409  -0.060830  -0.022922
C    6.901147   0.110266  -0.040516
N    8.172876  -1.963974  -0.168828
O   10.751484  -1.225015  -0.111872
C   10.850127   1.428387  -0.673839
C    8.336943   2.477185   0.166806
H   11.135551   1.649939  -2.712551
H   12.438423   2.295658   0.324164
H    7.627388   3.986056  -1.045831
H    8.365345   3.086395   2.141305

