%chk=mol_5257.chk
# wB97XD/Def2SVP opt freq pop=full gfinput

C 4 H 7 N 1 O 2

1 2
C    1.10176969   1.56703949   0.16260995
N    2.24490929   0.98718959   0.02793999
O    3.25501871   1.96115935   0.09224997
C    4.51547861   1.32720947  -0.14078994
C    5.58168793   2.37019897  -0.11453996
C    6.42907763   2.60178900   1.10828960
O    6.91787767   1.85739934  -0.01781999
H    0.17696993   0.96992964   0.14115994
H    0.99225962   2.65648913   0.29967991
H    4.49996805   0.84486967  -1.12435961
H    4.68317842   0.56341982   0.62723976
H    5.40323782   3.18523884  -0.80246967
H    6.20754766   2.05074930   2.01376915
H    6.84038782   3.58997869   1.26846945

