%chk=mol_5735.chk
# wB97XD/Def2SVP opt freq pop=full gfinput

C 4 H 8 N 2 O 1

1 2
N    2.83777905  -0.55052978   1.26373959
C    2.38584900   0.08522997   0.02958999
C    2.82971907   1.53254938  -0.05589998
C    1.93386936   2.53210902  -0.09144997
N    4.16929865   1.85468924  -0.11264995
C    5.24499798   1.00894964  -0.10730996
O    6.39951754   1.41793942  -0.16732994
H    2.44137907  -1.48716938   1.32084954
H    2.45845914  -0.03443999   2.05708933
H    1.29259956   0.01200000  -0.01922999
H    2.77307892  -0.46927983  -0.83277971
H    0.86632967   2.33700919  -0.05374998
H    2.23207927   3.57375860  -0.15747994
H    4.43629837   2.83058906  -0.15631995
H    5.00781822  -0.06330997  -0.06646997

