%chk=mol_6590.chk
# wB97XD/Def2SVP opt freq pop=full gfinput

C 4 H 6 N 2 S 1

1 2
C    0.86502969  -0.01968999  -0.00709000
N    2.30423903   0.01063000   0.05201998
S    3.13714886   1.46262944  -0.00660000
C    4.66368818   0.62582982  -0.02337999
C    4.58012819  -0.71075976  -0.01148000
C    3.14666867  -1.07667959   0.01810999
N    2.82185888  -2.32664919   0.00852000
H    0.41909984   0.98070961   0.02879999
H    0.46457982  -0.58660972   0.84009963
H    0.52975982  -0.50157982  -0.93148965
H    5.59823799   1.16983950  -0.04454998
H    5.37641811  -1.43190956  -0.02196999
H    1.80515933  -2.41597891   0.03356998

