%chk=mol_1919.chk
# wB97XD/Def2SVP opt pop=full gfinput

C 6 H 9 N 1

1 2
N    1.839894  -0.106826  -0.368629
C    4.553295  -0.001096   0.001380
C    5.792426  -2.318240  -1.049875
C    7.659381  -1.744935  -2.662794
C    7.934903   1.052653  -2.973994
C    5.786020   2.139321  -1.436853
C    5.063408   4.566013  -1.513860
H    1.063122   1.493961   0.354248
H    1.128715  -1.555698   0.672837
H    5.001595   0.151499   2.018568
H    5.256613  -4.220817  -0.536644
H    8.824397  -3.109960  -3.637704
H    9.761815   1.670215  -2.229253
H    7.774844   1.579282  -4.967957
H    6.051867   5.928884  -2.686208
H    3.457027   5.243177  -0.433295

