%chk=mol_1460.chk
# wB97XD/Def2SVP opt pop=full gfinput

C 6 H 13 N 1

1 2
C    4.354345  -0.846106  -2.632540
C    4.529919   0.294193   0.004460
N    6.216557   2.490546   0.004346
C    4.905427   4.779628  -0.969977
C    6.171033   6.273947   1.181532
C    6.267787   3.694339   2.554796
C    8.679040   3.104423   3.985357
H    3.177971  -2.547729  -2.592251
H    6.223605  -1.384735  -3.339883
H    3.507124   0.477950  -3.978289
H    5.307787  -1.146478   1.275282
H    2.625963   0.740621   0.695022
H    2.834627   4.762091  -0.855762
H    5.462858   5.346262  -2.878223
H    8.016974   7.069938   0.679073
H    5.016240   7.736822   2.070743
H    4.579014   3.358856   3.718868
H   10.367208   3.429910   2.832151
H    8.699260   1.131285   4.608589
H    8.825758   4.295915   5.670539

