%chk=mol_5066.chk
# wB97XD/Def2SVP opt freq pop=full gfinput

C 5 H 7 N 1 O 1

1 2
C    1.17701960   0.10145997  -0.23444992
N    2.59928894   0.18559992   0.03800999
C    3.37143850  -1.04345965   0.07395997
C    3.75839877  -1.46547937  -1.27850950
C    4.07942820  -1.80477929  -2.38435912
C    3.23326874   1.41050947   0.04720998
O    2.69306898   2.50155926  -0.07947997
H    0.70229971   1.08542955  -0.19131993
H    0.71116972  -0.54908979   0.51135981
H    1.02749956  -0.31906989  -1.23293948
H    2.78040886  -1.81638932   0.57654983
H    4.27328825  -0.87650967   0.67401975
H    4.36407804  -2.09898925  -3.36892867
H    4.32193851   1.32755959   0.20474993

