%chk=mol_6344.chk
# wB97XD/Def2SVP opt pop=full gfinput

C 4 H 5 N 1 O 2

1 2
O    1.934815   0.170812  -0.587856
N    4.471489  -0.016648   0.141862
C    5.548538   2.176927   0.145622
C    8.276434   2.481929   0.868575
O    8.707612   5.159501   0.659760
C    6.434536   6.163928  -0.123172
C    4.475400   4.638049  -0.486964
H    1.363929  -1.579509  -0.491159
H    9.509858   1.472531  -0.446618
H    8.602846   1.871112   2.814785
H    6.476035   8.187276  -0.372049
H    2.580761   5.039276  -1.082208

