%chk=mol_4366.chk
# wB97XD/Def2SVP opt freq pop=full gfinput

C 5 H 7 N 1 O 1

1 2
C    0.95686966   0.03882999  -0.03068999
C    2.48075891   0.13028996  -0.08737997
C    3.05851889  -0.40801984  -1.40067947
C    2.87253881  -1.85862935  -1.51907945
N    2.71639895  -3.00703907  -1.59530938
C    2.87638879   1.57878935   0.10443997
O    3.54446864   2.22029901  -0.69971979
H    0.57345974   0.47897980   0.89666969
H    0.61675972  -1.00072968  -0.06899998
H    0.49644980   0.58134979  -0.86400968
H    2.90381885  -0.42352986   0.76031971
H    4.13275814  -0.19101992  -1.45444953
H    2.59636903   0.09702996  -2.25764918
H    2.54465914   2.04115915   1.05092967

