%chk=mol_2879.chk
# wB97XD/Def2SVP opt freq pop=full gfinput

C 6 H 12 O 1

1 2
C    0.77312976  -0.14993995  -0.08988997
C    2.28441930  -0.11750996   0.07302997
C    2.84579897   1.28438950  -0.16819994
C    4.33277845   1.31307948   0.04718998
C    5.20903826   1.66432941  -0.90574968
O    6.57279730   1.72472930  -0.83991969
C    7.18119717   1.33441961   0.38549984
H    0.39521986  -1.16163957   0.08820997
H    0.48025981   0.14949995  -1.10105956
H    0.28759989   0.52386981   0.62340975
H    2.73695898  -0.82811964  -0.62929976
H    2.54090905  -0.45765984   1.08388960
H    2.38139892   1.99578929   0.52513981
H    2.59089899   1.61451936  -1.18284965
H    4.67092800   1.03440964   1.04011965
H    4.89598799   1.95888925  -1.90304935
H    8.26502705   1.42798936   0.26951990
H    6.95605707   0.28803989   0.61763972
H    6.87116766   1.99146926   1.20472944

