%chk=mol_6715.chk
# wB97XD/Def2SVP opt freq pop=full gfinput

C 4 H 2 O 2 S 1

1 2
O    1.06939960   0.08906997  -0.17949992
S    2.47779918  -0.04105999   0.07310997
O    3.18005872  -0.64847976   1.16956949
C    3.08511877  -0.89392966  -1.34327960
C    3.50043869  -1.47458947  -2.31082916
C    3.06516886   1.62014937   0.06224998
C    3.46677876   2.75277877   0.05314998
H    3.86569858  -1.99371922  -3.16605878
H    3.81986856   3.75810862   0.05041998

