%chk=mol_2778.chk
# wB97XD/Def2SVP opt pop=full gfinput

C 6 H 8 O 1

1 2
C    1.828934  -0.005027   0.001512
C    4.665394  -0.028837   0.003042
C    5.958836  -2.209165   0.018141
C    6.018778   2.300987   0.000000
C    7.143316   4.248747   0.000000
C    8.507698   6.611925   0.000000
O    6.804337   8.666492  -0.308989
H    1.086479   1.925045   0.089951
H    1.088085  -1.032943   1.637618
H    1.095890  -0.880291  -1.724224
H    4.993110  -4.018711   0.025133
H    8.010946  -2.245392   0.025039
H    9.888824   6.685360  -1.537009
H    9.524144   6.891907   1.777892
H    5.747319   8.258179  -1.755234

