%chk=mol_6689.chk
# wB97XD/Def2SVP opt freq pop=full gfinput

C 4 H 3 N 1 O 1 S 1

1 2
O    2.70305896  -1.12198961   0.02747999
C    2.15581918  -0.02512999  -0.00437000
C    2.88209891   1.22511947  -0.00237000
C    2.29006910   2.47425914  -0.03775999
S    3.51598859   3.67096877  -0.02077999
N    4.78755808   2.60918903   0.03109999
C    4.30154848   1.37075937   0.03573999
H    1.05513966   0.05519998  -0.03679999
H    1.24402964   2.74432898  -0.07145998
H    5.01655817   0.55627978   0.06814998

