%chk=mol_3257.chk
# wB97XD/Def2SVP opt pop=full gfinput

C 5 H 8 O 2

1 2
C    3.616992  -1.205853   0.024699
C    5.743728   0.073151  -1.411871
O    7.791378   0.476381   0.302224
C    9.925352   1.595609  -0.637310
C   10.395043   2.384211  -2.995027
C   12.859322   3.544446  -3.578688
O   13.360591   4.282327  -5.714475
H    1.994039  -1.543339  -1.208631
H    3.012186  -0.039646   1.622916
H    4.251109  -3.014397   0.804267
H    5.076201   1.886476  -2.158993
H    6.348686  -1.149086  -2.971311
H   11.281098   1.768236   0.893481
H    9.081363   2.233788  -4.552218
H   14.211402   3.708134  -2.001541

