%chk=mol_1210.chk
# wB97XD/Def2SVP opt freq pop=full gfinput

C 7 H 12

1 2
C    0.96778959   0.04528999   0.00104000
C    2.48977900  -0.00440000   0.02968999
C    3.08189893   1.11772954   0.88469964
C    4.49604845   0.63577980   1.17705965
C    4.33700800  -0.85707968   1.44255936
C    3.10997868  -1.23667955   0.65250981
C    2.64326906  -2.48972917   0.57729977
H    0.55989981  -0.72585970  -0.66086978
H    0.62245977   1.01605964  -0.37013987
H    0.54078978  -0.10569996   0.99866962
H    2.87281895   0.09233996  -0.99491966
H    2.52497911   1.24133945   1.82227933
H    3.07992887   2.07892919   0.36127985
H    5.13914824   0.79929972   0.30259988
H    4.94533777   1.15975952   2.02640939
H    5.22488832  -1.40889943   1.12229955
H    4.16546822  -1.03528965   2.50944901
H    1.74849927  -2.73532891   0.01442999
H    3.15064883  -3.30797887   1.07957959

