%chk=mol_4975.chk
# wB97XD/Def2SVP opt freq pop=full gfinput

C 5 H 11 N 1 O 1

1 2
C    1.02958965   0.02249999   0.11006995
N    2.48194885   0.04993998  -0.02493999
C    3.07889891   1.00903964   0.93514961
C    4.15774870  -0.05681998   1.24390948
C    5.43926764   0.00074000   0.42908984
O    6.25373745   1.06680965   0.90562963
C    3.09890866  -1.06413960   0.73509967
H    0.61739975  -0.81209970  -0.46771985
H    0.60004979   0.94393963  -0.29829991
H    0.68404973  -0.08082997   1.14606953
H    2.46103907   1.26428950   1.80597937
H    3.43828869   1.93837929   0.48314983
H    4.37877846  -0.16487993   2.31342912
H    5.25878811   0.14569995  -0.64115971
H    6.00667763  -0.92727965   0.55232978
H    5.87148762   1.89335930   0.56453979
H    3.47656870  -1.88296926   0.11501995
H    2.48715901  -1.49302948   1.53956938

