%chk=mol_5794.chk
# wB97XD/Def2SVP opt pop=full gfinput

C 4 H 6 N 2 O 1

1 2
N    1.707046   0.169357  -0.023111
C    4.332972   0.051098  -0.013304
C    5.427180  -2.611639  -0.063230
O    4.109928  -4.019996  -1.952201
C    5.770317   2.150489   0.000000
C    8.427272   2.150489   0.000000
N   10.602365   2.150489   0.000000
H    0.951383   1.752135  -0.806006
H    0.924435  -1.461741  -0.713995
H    5.109139  -3.535148   1.760034
H    7.445766  -2.687720  -0.493237
H    4.577332  -3.276048  -3.566329
H    4.872961   3.992198   0.043993

