%chk=mol_4878.chk
# wB97XD/Def2SVP opt freq pop=full gfinput

C 4 H 9 N 1 O 2

1 2
C    0.93353963  -0.39838985   0.09596996
C    2.42170906  -0.09147996  -0.01236000
O    2.99834895  -0.96636963  -0.98383963
C    2.66600895   1.35708952  -0.42089984
C    4.13106871   1.67183936  -0.29994988
N    4.54493809   2.60666895   0.49389979
O    5.93843746   2.69118905   0.39550987
H    0.45136985   0.22639991   0.85342968
H    0.77951974  -1.45029938   0.35978988
H    0.42826983  -0.23828991  -0.86307967
H    2.90769887  -0.30626988   0.94598967
H    2.46209908  -0.92148966  -1.79454923
H    2.09702921   2.04505920   0.21367991
H    2.38452911   1.52011943  -1.46680939
H    4.82837820   1.08407962  -0.92355967
H    6.15096760   3.40587878   1.02434957

