%chk=mol_5296.chk
# wB97XD/Def2SVP opt freq pop=full gfinput

C 4 H 8 N 2 O 1

1 2
C    2.11404920  -0.31784990  -1.56897938
O    2.22215939   0.17992993  -0.24365991
C    3.21077871   1.18700957  -0.10977995
C    3.40745854   1.57028937   1.35795951
N    2.70906901   2.85279894   1.45042944
N    2.57742906   3.45871878   0.24937990
C    2.80059886   2.54024911  -0.63484973
H    1.35684955  -1.10652959  -1.57835937
H    3.06576872  -0.74638969  -1.89772928
H    1.79850936   0.47181982  -2.25681925
H    4.15631866   0.87251967  -0.56503975
H    4.47171831   1.72246933   1.56920934
H    2.99726892   0.83784968   2.05867910
H    3.07267880   3.46874857   2.17833924
H    2.72570896   2.71760893  -1.71633935

