%chk=mol_4143.chk
# wB97XD/Def2SVP opt pop=full gfinput

C 4 H 4 N 2 O 1

1 2
C    2.006889  -0.066821  -0.289241
C    4.481977  -0.018708   0.123097
N    6.059256  -2.004640   0.425699
C    8.486156  -1.142113   0.813924
O   10.308343  -2.514942   1.145325
N    8.497948   1.481205   0.764035
C    6.174529   2.165399   0.362563
H    0.980333  -1.835945  -0.425699
H    0.931389   1.666228  -0.503102
H    5.628379  -3.856855   0.390380
H    5.463104   4.109002   0.205357

