%chk=mol_0118.chk
# wB97XD/Def2SVP opt freq pop=full gfinput

C 3 H 5 N 1 O 1

1 2
O    0.89912963   0.12686995  -0.01892999
N    2.27387905  -0.11269996  -0.13413994
C    2.91328883   0.97769964   0.13865995
C    4.38715839   1.03689957   0.10096996
C    5.02327824   2.17741919   0.38750985
H    0.51755983  -0.74287969  -0.24120991
H    2.38597918   1.90965927   0.41098985
H    4.91287804   0.12745996  -0.16517994
H    4.49487829   3.08734894   0.65388978
H    6.10780811   2.22108912   0.35980988

