%chk=mol_1229.chk
# wB97XD/Def2SVP opt freq pop=full gfinput

C 5 H 10 N 2

1 2
C    2.66927886  -0.66650975   1.52656949
C    3.19202876  -0.27389991   0.15361995
C    3.11674881   1.21027946  -0.05960998
C    4.19571877   1.98546934  -0.25188991
C    4.09346819   3.45149875  -0.48535982
N    2.92721891   4.14644814  -0.40948987
N    5.14639807   4.15467834  -0.76299971
H    2.69940901  -1.75464940   1.64519930
H    1.63307929  -0.34027988   1.66676939
H    3.27731872  -0.22268993   2.32223916
H    2.59334898  -0.76925975  -0.61932981
H    4.22018814  -0.63715976   0.04168998
H    2.11759925   1.63691950  -0.08514997
H    5.19356775   1.56139934  -0.25832990
H    2.28780913   3.85564876   0.31830990
H    3.10780883   5.14502764  -0.39512983
H    5.97977734   3.56224871  -0.80886966

