%chk=mol_1109.chk
# wB97XD/Def2SVP opt freq pop=full gfinput

C 4 H 5 N 1 O 1

1 2
O    0.97885966  -0.09329996  -0.00609000
C    2.29680920   0.03772999  -0.00004000
C    3.11970901   1.14144957   0.00375000
C    4.45731831   0.67103970   0.00988000
C    4.40896845  -0.70539975   0.00964000
N    3.09002900  -1.07787955   0.00358000
H    0.60405976   0.80554968  -0.00777000
H    2.80255914   2.17521906   0.00231000
H    5.35742807   1.27189958   0.01402999
H    5.19377804  -1.44934952   0.01323999
H    2.73683882  -2.02467918   0.00194000

