%chk=mol_0921.chk
# wB97XD/Def2SVP opt freq pop=full gfinput

C 4 H 8 O 2

1 2
O    2.75831914  -0.74313974   1.18594956
C    2.38410902  -0.06766998  -0.02107999
C    2.95402884   1.36119950  -0.01667999
O    2.59582901   1.99828923   1.20956957
C    4.45298815   1.38422954  -0.11243996
C    5.14584780   1.97400928  -1.09601963
H    2.40456915  -1.64743936   1.11918962
H    1.29013944  -0.03000999  -0.03960998
H    2.74177909  -0.64165980  -0.88143963
H    2.50568914   1.93385923  -0.83643973
H    2.72953892   1.31089950   1.89182925
H    4.99598789   0.88441968   0.68671972
H    4.65256786   2.49686909  -1.90929925
H    6.23134756   1.95710933  -1.09481955

