%chk=mol_6229.chk
# wB97XD/Def2SVP opt pop=full gfinput

C 4 H 8 N 2 O 1

1 2
O    7.981410  -2.156348  -1.118359
C    5.989052  -1.090750   0.319968
C    6.235114   1.723733   0.483430
C    8.008981   3.130275  -0.654771
N    8.264472   5.705820  -0.507032
C    9.977395   7.264542  -1.647973
N   11.746406   6.742373  -3.226896
H    7.741547  -3.976778  -1.092016
H    6.041001  -1.903483   2.221128
H    4.189655  -1.584819  -0.571642
H    4.816477   2.647091   1.644553
H    9.428391   2.212472  -1.824020
H    6.985694   6.563397   0.635723
H    9.719769   9.251854  -1.069131
H   11.743666   4.845277  -3.592048

