%chk=mol_4938.chk
# wB97XD/Def2SVP opt freq pop=full gfinput

C 5 H 10 N 2

1 2
C   -1.20651948  -0.70732975  -0.56779981
N   -1.26183951   0.77955973  -0.46434984
C   -0.02207999   1.09211957   0.30215988
C    1.21598947   0.71114975  -0.54287982
N    1.26948953  -0.77711976  -0.44605982
C    0.01825999  -1.09313965   0.29615986
C   -0.01134000  -0.00279000   1.35212958
H   -1.10586965  -1.02799964  -1.60944939
H   -2.12557936  -1.13595963  -0.15331994
H   -2.07021928   1.03316963   0.10311996
H   -0.00585000   2.11549926   0.68235976
H    2.12822914   1.13740957  -0.11079996
H    1.13368952   1.03708959  -1.58514941
H    2.06835914  -1.03298962   0.13322994
H   -0.00547000  -2.11848927   0.67139971
H   -0.91067970  -0.02359999   1.97840929
H    0.87661970   0.01392000   1.99370933

