%chk=mol_4998.chk
# wB97XD/Def2SVP opt freq pop=full gfinput

C 4 H 6 N 2 O 1

1 2
C    1.09674966   0.00008000  -0.16699994
N    2.51473927   0.01566000   0.08807997
C    3.30419874  -1.05835962   0.23294991
N    4.55688810  -0.85212970   0.46419981
C    4.68296862   0.63055974   0.49000981
C    3.27985883   1.13011956   0.23426992
O    2.92339897   2.29545927   0.17551994
H    0.70732975   1.01390958  -0.28498989
H    0.59715980  -0.49699983   0.66924977
H    0.90872967  -0.58277982  -1.07370961
H    2.84250879  -2.05279922   0.14658993
H    5.02937794   0.96232963   1.47198939
H    5.35468769   0.96584964  -0.30416989

