%chk=mol_0902.chk
# wB97XD/Def2SVP opt pop=full gfinput

C 5 H 8 O 1

1 2
O    1.613580   0.088798  -0.128634
C    4.268343  -0.284498  -0.326639
C    5.588827   2.239741   0.088345
C    8.463195   2.021667   0.058676
C    9.445890   1.376817  -2.458912
C   10.253730   0.854534  -4.515935
H    0.815530  -1.526483  -0.491820
H    4.677413  -1.052899  -2.202098
H    4.840307  -1.662184   1.106529
H    4.986175   3.014850   1.915294
H    4.941123   3.600250  -1.337416
H    9.082420   0.610098   1.441256
H    9.275928   3.833990   0.650727
H   10.970522   0.399904  -6.342129

