%chk=mol_5023.chk
# wB97XD/Def2SVP opt freq pop=full gfinput

C 5 H 11 N 1 O 1

1 2
C    1.71058929  -0.57495981  -1.08933949
N    2.27924919  -0.01196000   0.12914996
C    3.10573888   1.18177962  -0.14556995
C    4.35004807   0.93628967  -0.97357959
C    2.23083925   2.41127896  -0.47217983
O    2.84781885   3.17040873   0.60719979
C    3.34235859   1.92932928   1.18834949
H    1.01083958  -1.37393939  -0.82217973
H    2.48012924  -1.01474965  -1.73157942
H    1.14805961   0.16834994  -1.66334939
H    2.77371883  -0.74676973   0.63493979
H    4.96955824   1.83864939  -1.03585958
H    4.10197830   0.64958972  -2.00091934
H    4.96761847   0.14329995  -0.53727978
H    1.15073955   2.32352901  -0.31072989
H    2.41628909   2.87701893  -1.44456947
H    4.38579845   2.02496934   1.50483942
H    2.73043895   1.63786936   2.04980922

