%chk=mol_7152.chk
# wB97XD/Def2SVP opt pop=full gfinput

C 7 H 10

1 2
C    1.700489   0.099607   0.153862
C    4.579940   0.027307   0.195473
C    5.704668   2.213191  -1.248504
C    7.159019   1.347904  -3.137796
C    7.146132  -1.374700  -3.116631
C    5.679496  -2.202268  -1.216587
C    5.188111  -4.861680  -0.470674
H    0.997511   1.836965   1.034701
H    0.907333  -1.499649   1.200411
H    0.952460   0.024188  -1.777117
H    5.269709   0.050607   2.148052
H    5.386060   4.179507  -0.805855
H    8.204586   2.481248  -4.473284
H    8.195421  -2.527754  -4.431540
H    6.233791  -6.188135  -1.663431
H    3.176025  -5.308789  -0.640617
H    5.768257  -5.177207   1.490295

