%chk=mol_0740.chk
# wB97XD/Def2SVP opt pop=full gfinput

C 5 H 8 O 1

1 2
C    1.874079  -0.070600  -0.078934
C    4.762110   0.000000   0.000000
C    5.741479  -1.438063   2.304842
O    5.686677  -1.267515  -2.194539
C    5.672996   2.572238   0.000000
C    6.423746   4.692322   0.000000
H    1.153300   0.880045  -1.772828
H    1.037668   0.849224   1.575578
H    1.186219  -2.021497  -0.165049
H    5.100503  -0.580373   4.075799
H    7.812751  -1.482263   2.326442
H    5.114411  -3.410861   2.265763
H    5.302534  -0.191826  -3.633906
H    7.107033   6.586943   0.003420

