%chk=mol_4794.chk
# wB97XD/Def2SVP opt freq pop=full gfinput

C 6 H 11 N 1

1 2
C    0.80484968   0.41930982  -0.82225972
C   -0.03730999   1.23330951   0.11590996
C    0.28855988  -0.19706993   0.44922984
N    1.23696947  -0.47098982   1.53517950
C    0.57025975  -0.69138974   2.84441900
C    1.60146940  -1.80472934   3.10520887
C    1.68752944  -1.88631928   1.56968939
H    0.36189985   0.09733997  -1.75662935
H    1.86099935   0.65439975  -0.88695967
H   -1.05325961   1.46416938  -0.18026993
H    0.45045984   2.01678920   0.68430978
H   -0.52754980  -0.90956968   0.33955988
H   -0.46491981  -1.05188966   2.79183888
H    0.61640978   0.15892994   3.53066874
H    2.52277899  -1.45895946   3.58840871
H    1.23303950  -2.69591904   3.61830878
H    2.68918896  -2.05869913   1.16594958
H    0.99480963  -2.61388898   1.12782955

