%chk=mol_1943.chk
# wB97XD/Def2SVP opt pop=full gfinput

C 7 H 12

1 2
C    1.954015   0.063835  -0.064950
C    4.764793  -0.105806  -0.137761
C    6.070008  -1.353195  -2.323607
C    6.260190   1.480846  -1.994379
C    8.691587   2.817166  -1.204606
C   11.292191   1.866728  -1.896983
C   10.300141   4.229698  -3.095164
H    1.370410   1.654134   1.119927
H    1.159612  -1.666587   0.740300
H    1.140865   0.330192  -1.947665
H    5.555190  -0.397334   1.730895
H    4.940197  -2.054283  -3.882386
H    7.713881  -2.503566  -1.911288
H    5.125145   2.589530  -3.312728
H    8.552825   3.725538   0.641902
H   11.450418   0.199839  -3.075624
H   12.775702   2.043058  -0.495203
H   11.108491   6.019477  -2.513997
H    9.769241   4.149479  -5.071911

