%chk=mol_3754.chk
# wB97XD/Def2SVP opt freq pop=full gfinput

C 7 H 12

1 2
C    0.88104969  -0.10044996  -0.01997999
C    2.39788914  -0.08409997   0.08919997
C    2.95625877   1.32635951  -0.10205996
C    4.45571852   1.33728945  -0.00673000
C    5.13656807   2.01170921   0.93161964
C    6.57785749   2.01547933   1.00064969
C    7.26034689   2.68477893   1.93601930
H    0.50186980  -1.11726964   0.12144995
H    0.55512977   0.24997991  -1.00440967
H    0.42604986   0.54077977   0.74155968
H    2.81828880  -0.76170975  -0.66400975
H    2.69087911  -0.47387981   1.07176960
H    2.51466894   2.00144935   0.64119977
H    2.66901898   1.70939934  -1.08863962
H    4.98926830   0.76469976  -0.76272970
H    4.59752798   2.58609891   1.68246937
H    7.12534714   1.44507945   0.25274992
H    6.76595736   3.26947880   2.70563912
H    8.34546661   2.65960908   1.94965935

