%chk=mol_5846.chk
# wB97XD/Def2SVP opt freq pop=full gfinput

C 4 H 8 N 2 O 1

1 2
N    0.92133963   0.15610994  -0.29828990
C    2.12539911   0.08389997   0.35004985
O    2.36633921  -0.90230966   1.04620957
C    3.08008885   1.26833951   0.11104996
C    2.54327917   2.70750880   0.24286991
N    3.82193851   3.09627891   0.87895966
C    4.00657845   1.67879939   1.27547956
H    0.65515977   0.91793966  -0.90470964
H    0.27624989  -0.61308980  -0.16797993
H    3.64460874   1.12371957  -0.82276964
H    1.67720938   2.82199883   0.90568966
H    2.33016920   3.21960878  -0.70018971
H    4.52684784   3.41961884   0.21483992
H    5.03726816   1.31813955   1.20960963
H    3.62084866   1.45594954   2.27760911

