%chk=mol_0687.chk
# wB97XD/Def2SVP opt freq pop=full gfinput

C 5 H 8 O 1

1 2
C    0.83183974   0.09778997   0.15796994
C    2.31651902  -0.00651000   0.01238000
C    3.11023903   1.05288959  -0.20173994
C    4.59057856   0.99165964  -0.35239989
C    5.29602814  -0.33590987  -0.27080989
O    5.20668793   2.03965926  -0.54151982
H    0.33924988  -0.50098979  -0.61434978
H    0.47721982   1.12932968   0.06807998
H    0.52610981  -0.28420988   1.13683951
H    2.72430921  -1.01031959   0.09177997
H    2.70189905   2.05674911  -0.28042990
H    4.93973827  -1.00137961  -1.06140959
H    5.14077806  -0.78507972   0.71345973
H    6.37042761  -0.18265994  -0.41173983

