%chk=mol_2709.chk
# wB97XD/Def2SVP opt pop=full gfinput

C 7 H 14

1 2
C    4.710747  -1.641284   2.380016
C    4.718722  -0.152444  -0.062191
C    3.591840  -1.175655  -2.101243
C    6.034274   2.453677  -0.044938
C    5.717839   3.928552  -2.548409
C    4.939687   4.127275   2.075694
C    8.894412   2.110427   0.400036
H    6.633241  -1.947401   3.071580
H    3.852623  -3.511111   2.145897
H    3.623266  -0.657322   3.836182
H    2.691802  -3.019839  -2.013843
H    3.516497  -0.243831  -3.923638
H    6.575585   2.921970  -4.143546
H    6.636491   5.783979  -2.443964
H    3.720342   4.261276  -2.986315
H    5.336473   3.355643   3.955801
H    2.885990   4.326358   1.888914
H    5.760906   6.029587   2.026882
H    9.299683   1.302834   2.262531
H    9.887236   3.926189   0.303301
H    9.730105   0.862925  -1.026802

