%chk=mol_0282.chk
# wB97XD/Def2SVP opt pop=full gfinput

C 6 H 12

1 2
C    2.211263   0.384370   0.283327
C    5.028145  -0.057826  -0.171304
C    5.435155  -1.485948  -2.647544
C    6.425409   2.424349  -0.217961
C    7.260309   3.645584   2.216819
C    9.190853   2.525883   0.459940
H    1.901046   1.368275   2.078944
H    1.182685  -1.410378   0.353776
H    1.378083   1.546533  -1.215661
H    5.749492  -1.235900   1.374228
H    4.735956  -0.401321  -4.267909
H    4.454047  -3.308098  -2.620219
H    7.448771  -1.850288  -2.964281
H    5.778083   3.663669  -1.719632
H    6.894288   2.674095   3.982825
H    7.151763   5.687471   2.349402
H   10.388259   3.809745  -0.596095
H   10.126966   0.798315   1.041088

