%chk=mol_6230.chk
# wB97XD/Def2SVP opt freq pop=full gfinput

C 4 H 8 N 2 O 1

1 2
O    3.18062878  -0.68477970   0.04558998
C    2.05976915   0.20457992  -0.01373999
C    2.56582904   1.63668942  -0.05053998
C    1.67769933   2.63991904  -0.14475995
N    3.94240856   1.77283931   0.01630999
C    4.74236822   2.86735892   0.02273999
N    6.02823782   2.86462903   0.08237997
H    2.80881882  -1.58408940   0.06839997
H    1.44367945   0.03616999   0.87553966
H    1.48687947  -0.02798999  -0.91730970
H    0.61042976   2.44660902  -0.19331992
H    1.98105931   3.67998862  -0.17750993
H    4.39216805   0.85768968   0.06396998
H    4.21005869   3.83061862  -0.02693999
H    6.36581755   1.90020931   0.12310995

