%chk=mol_3652.chk
# wB97XD/Def2SVP opt freq pop=full gfinput

C 5 H 6 O 2

1 2
O    1.88387930  -0.74504977  -0.66402978
C    2.03591919   0.20563991   0.09829997
C    3.09604883   1.27469957  -0.06417997
C    3.53827882   1.47885942  -1.51449943
C    3.47372866   2.95402884  -1.63083935
C    2.91650891   3.44137883  -0.52984977
O    2.55517912   2.52150893   0.42784983
H    1.44468951   0.27167991   1.02765965
H    3.94241858   1.00375962   0.57924974
H    2.87768888   1.00482965  -2.24670911
H    4.55433798   1.10304964  -1.67091930
H    3.79193854   3.52942872  -2.48677897
H    2.68087912   4.46649837  -0.29308990

