%chk=mol_0957.chk
# wB97XD/Def2SVP opt freq pop=full gfinput

C 4 H 7 N 1 O 1

1 2
C    0.99755961   0.03023999   0.12231995
C    2.49880910  -0.02883999  -0.06409997
N    3.22512889   0.97907960   0.74503970
C    4.17541838  -0.00593000   1.30134952
C    3.24780869  -1.09535956   0.74777973
O    3.15113878  -2.29496932   0.89247966
H    0.51832980  -0.82201970  -0.37122986
H    0.58620983   0.94317961  -0.32160988
H    0.71055973   0.00682000   1.17956960
H    2.79473901  -0.02700999  -1.11956954
H    2.65067911   1.42567945   1.46236944
H    5.16392803   0.00808000   0.83491969
H    4.26600838   0.00778000   2.38932896

