%chk=mol_5839.chk
# wB97XD/Def2SVP opt freq pop=full gfinput

C 4 H 6 N 2 O 1

1 2
N    0.99677962   1.73436940  -1.53114939
C    2.24948907   2.00207925  -1.40670943
N    2.88311887   2.12293911  -0.20851992
O    4.22036839   1.71295929  -0.26382992
C    5.01235819   2.80189896   0.22679991
C    6.43155766   2.43362904   0.16365995
C    7.59442711   2.13408923   0.11041995
H    0.75700974   1.70269930  -2.52892900
H    2.90170884   2.16843915  -2.28200912
H    2.34903908   1.70146930   0.54955983
H    4.72761869   3.02200866   1.26234961
H    4.83182812   3.69131875  -0.38819984
H    8.62429714   1.86648929   0.06049998

