%chk=mol_5000.chk
# wB97XD/Def2SVP opt freq pop=full gfinput

C 4 H 6 N 2 O 1

1 2
C    0.98941964   0.03194999  -0.00415000
N    2.42954898  -0.05414998  -0.00509000
N    3.15492868   1.08226955  -0.01042000
C    4.41775799   0.64993978  -0.01030000
C    4.50422812  -0.75261974  -0.00533000
C    3.20125890  -1.19377959  -0.00222000
O    2.73208904  -2.43782902   0.00243000
H    0.68269974   1.08099961   0.00660000
H    0.61494976  -0.47294980   0.88973963
H    0.61549979  -0.45520982  -0.90791965
H    5.22185802   1.37420940  -0.01397999
H    5.39173841  -1.36785948  -0.00435000
H    1.76080930  -2.43383908   0.00273000

