%chk=mol_5613.chk
# wB97XD/Def2SVP opt pop=full gfinput

C 5 H 7 N 1 O 1

1 2
N    1.889726   0.000000   0.000000
C    4.064820   0.000000   0.000000
C    6.793584   0.000000   0.000000
C    7.877645   2.152341   1.565827
C   10.478380   1.172235   2.189059
C    9.987561  -1.618702   2.587980
O    7.858256  -2.284188   1.048401
H    7.498415   0.132545  -1.944755
H    6.803127   2.423309   3.320419
H    7.900737   3.954913   0.552726
H   11.737580   1.447285   0.564442
H   11.339718   2.084519   3.830437
H   11.612726  -2.780033   2.062655
H    9.497215  -2.019267   4.555903

