%chk=mol_7039.chk
# wB97XD/Def2SVP opt freq pop=full gfinput

C 6 H 13 N 1

1 2
C    0.68440974  -0.25550991   0.34712988
C    2.08107924  -0.41057983  -0.23451991
C    2.94627881   0.81489968   0.06265998
C    4.34675837   0.72323972  -0.54888982
C    5.16624784  -0.37922984   0.05343998
C    5.38943815  -1.66923940  -0.69406974
N    6.46108770  -0.69102973  -0.55018979
H    0.08281997  -1.14461946   0.13209996
H    0.17375992   0.61235976  -0.08248997
H    0.72427970  -0.12776995   1.43376946
H    2.00644922  -0.56125981  -1.31773949
H    2.53920889  -1.31111956   0.18919994
H    3.02636886   0.95288962   1.14831960
H    2.45232916   1.70961940  -0.33645988
H    4.86313820   1.67421949  -0.36865985
H    4.26754856   0.60921979  -1.63733935
H    5.13821793  -0.39126983   1.13673961
H    4.98086834  -1.77709925  -1.69111931
H    5.48694801  -2.58788896  -0.12794995
H    7.13195753  -0.98481965   0.16240995

