%chk=mol_0682.chk
# wB97XD/Def2SVP opt freq pop=full gfinput

C 6 H 6

1 2
C    0.96617961  -0.04002998  -0.00000000
C    2.30286932  -0.00936000  -0.00000000
C    3.01703882   1.21762955   0.00000000
C    3.61211872   2.24833918   0.00000000
C    4.31511831   3.46596861   0.00000000
C    3.68147850   4.64341784  -0.00000000
H    0.43412983  -0.98555958  -0.00000000
H    0.37412986   0.86995965  -0.00000000
H    2.87260890  -0.93363965   0.00000000
H    5.40051794   3.43283868   0.00000000
H    2.59758902   4.70907831   0.00000000
H    4.24119854   5.57279778   0.00000000

