%chk=mol_6367.chk
# wB97XD/Def2SVP opt freq pop=full gfinput

C 5 H 9 N 1 O 1

1 2
O    0.44158983   0.87817967   0.89365965
N    1.81682932   0.66017979   1.03388965
C    2.43051910   1.22288954   0.04467998
C    3.92636847   1.15579951  -0.07307997
C    4.51164818   2.55649900   0.06569997
C    6.00714779   2.53991914  -0.07033997
C    6.68183708   3.18526888  -1.03026962
H    0.07579997   0.40787986   1.66635931
H    1.88594937   1.77363932  -0.74331969
H    4.16389847   0.73310977  -1.05571961
H    4.32621861   0.48510981   0.69600976
H    4.25324821   2.97337890   1.04669964
H    4.06149864   3.22400880  -0.67972976
H    6.56368780   1.97175920   0.67349976
H    6.17645741   3.77206850  -1.79103935
H    7.76625729   3.14006877  -1.07202959

