%chk=mol_3889.chk
# wB97XD/Def2SVP opt freq pop=full gfinput

C 5 H 7 N 1 O 1

1 2
C    0.96960962   0.00493000   0.54698974
C    2.39305925  -0.03549999   0.11176996
C    2.83152890   0.73734975  -1.10145962
O    4.22770834   1.11019969  -1.19944954
N    4.97029829  -0.08719996  -1.45914948
C    4.17610836  -1.10570955  -1.42317951
C    2.78138900  -0.75863975  -1.15455961
H    0.78136969   0.90862966   1.13461959
H    0.74371970  -0.86286962   1.17409956
H    0.27840990   0.00030000  -0.30207989
H    3.07209873  -0.06951997   0.95634961
H    2.10671926   1.30615950  -1.66815937
H    4.48973799  -2.14716911  -1.58251941
H    2.02143931  -1.21693957  -1.77129936

