%chk=mol_4823.chk
# wB97XD/Def2SVP opt pop=full gfinput

C 5 H 11 N 1 O 1

1 2
C    3.943518   2.757923   4.258082
C    5.410588   2.678630   1.798736
O    7.292075   4.606378   1.858224
C    8.765400   4.611801  -0.403664
C   10.538153   6.810913  -0.310860
C   13.225305   6.477773   0.566124
N   12.649921   6.939868  -2.095801
H    2.449558   1.328799   4.271235
H    3.089192   4.621514   4.540502
H    5.201112   2.421136   5.867052
H    4.126954   3.005364   0.209079
H    6.310589   0.827889   1.576693
H    7.512890   4.815722  -2.045326
H    9.786703   2.814993  -0.561286
H    9.577151   8.572346   0.091444
H   13.889601   4.599386   1.025214
H   14.114402   8.006222   1.593871
H   13.028338   8.771769  -2.567892

