%chk=mol_1577.chk
# wB97XD/Def2SVP opt pop=full gfinput

C 5 H 12 N 2

1 2
C    2.619444  -0.675520  -1.323205
C    5.294086  -0.524040  -0.292719
N    6.233507   2.035745  -0.513911
C    8.696010   2.782036  -0.232682
N   10.601345   1.282670   0.000491
C    9.225757   5.602962  -0.173326
C    9.324003   6.559088   2.527811
H    1.916107  -2.616250  -1.221670
H    2.555552  -0.065725  -3.299367
H    1.336377   0.536588  -0.245589
H    6.488243  -1.830483  -1.366650
H    5.319881  -1.110441   1.694366
H    4.910680   3.407346  -0.279679
H   10.019592  -0.551346  -0.074304
H    7.751619   6.604952  -1.229399
H   11.031597   5.967301  -1.121023
H    7.530407   6.221205   3.501190
H    9.707618   8.590733   2.557744
H   10.812540   5.603964   3.600571

