%chk=mol_2243.chk
# wB97XD/Def2SVP opt freq pop=full gfinput

C 6 H 8 O 1

1 2
C    1.44997942   0.13647996   0.52210981
C    2.72950888  -0.10259996  -0.19926992
C    3.47520852   1.01930964  -0.87030971
C    4.06396866   0.38565984   0.36605987
C    4.89048815  -0.81259972   0.25056991
C    4.21150827  -1.80267930  -0.33264989
O    2.91011906  -1.47336948  -0.70546979
H    1.39858937   1.14906967   0.93506962
H    1.33866942  -0.57219982   1.34870946
H    0.60323977   0.00434000  -0.15838994
H    3.08326864   2.02554917  -0.77979976
H    3.93786860   0.82131970  -1.83064926
H    4.06337833   0.92070967   1.30574954
H    5.91239786  -0.87538970   0.59581977
H    4.51898861  -2.80444908  -0.57357979

