%chk=mol_5978.chk
# wB97XD/Def2SVP opt freq pop=full gfinput

C 4 H 5 N 1 O 2

1 2
O    0.91879964  -0.09256996  -0.05278998
N    2.30764914  -0.04444999  -0.02033999
C    3.07325888   1.08293951  -0.01251999
C    4.39279842   0.67665976   0.01193000
C    4.40195799  -0.74374974   0.01868999
C    3.09001875  -1.16682959  -0.00015000
O    2.57072902  -2.39083910  -0.00369000
H    0.70896971   0.84510970   0.08008996
H    2.63825917   2.07163930  -0.02793999
H    5.25701809   1.32839942   0.02118999
H    5.26741791  -1.39287949   0.03359999
H    1.59927940  -2.28098917  -0.02863999

