%chk=mol_0585.chk
# wB97XD/Def2SVP opt pop=full gfinput

C 5 H 8 O 1

1 2
C    1.769521   0.003213   1.886646
C    0.553406   1.844203  -0.050947
C   -2.288420   1.472588   0.156299
C   -2.313478  -1.417767   0.173911
C    0.524494  -1.839346  -0.029877
O    1.403840  -0.017272  -2.011235
H    3.835842  -0.013587   1.934569
H    1.008774   0.021108   3.806022
H    1.378895   3.718168  -0.271743
H   -3.071221   2.274266   1.893657
H   -3.299330   2.242462  -1.473722
H   -3.336576  -2.191459  -1.447511
H   -3.108656  -2.187188   1.920907
H    1.317007  -3.729620  -0.227769

