%chk=mol_4411.chk
# wB97XD/Def2SVP opt pop=full gfinput

C 5 H 9 N 1 O 1

1 2
C    1.789590  -0.074871   0.081542
C    4.684763  -0.052156  -0.058752
C    5.540979  -1.544322  -2.388538
C    5.720635   2.677836  -0.067803
O    4.698218   4.035151   2.046668
C    8.516995   2.734415   0.020938
N   10.705487   2.749003   0.132016
H    1.113313   0.809294   1.825230
H    1.068602  -2.015110   0.055974
H    0.956353   0.937814  -1.519869
H    5.382601  -1.031998   1.633215
H    4.927801  -0.618734  -4.135552
H    4.745783  -3.455515  -2.367543
H    7.599156  -1.738132  -2.450956
H    5.073953   3.663310  -1.770787
H    5.456301   3.338522   3.572244

