%chk=mol_6907.chk
# wB97XD/Def2SVP opt pop=full gfinput

C 6 H 9 N 1

1 2
C    1.889726   0.000000   0.000000
C    4.138803   0.000000   0.000000
C    6.867567   0.000000   0.000000
C    7.962456   2.174243   1.527673
C   10.593238   1.237941   2.163982
C   10.292167  -1.610103   2.393584
N    7.824751  -2.233392   1.323848
H   -0.123229  -0.012756   0.016214
H    7.620680   0.041120  -1.930828
H    6.890905   2.506476   3.274139
H    8.004880   3.949981   0.466611
H   11.890856   1.685541   0.611629
H   11.329626   2.101394   3.891759
H   11.820010  -2.596975   1.407166
H   10.334610  -2.194218   4.378118
H    7.919672  -3.734609   0.127708

