%chk=mol_1688.chk
# wB97XD/Def2SVP opt freq pop=full gfinput

C 6 H 13 N 1

1 2
C    2.08752918  -0.50352979  -1.29704952
N    2.26511931   0.11718996   0.01090000
C    3.22904873   1.21317959  -0.09323996
C    2.50978923   2.50696921  -0.53939974
C    3.25306869   3.24293876   0.60617971
C    4.55436850   3.93239856   0.22538991
C    3.38935876   1.86262929   1.30111957
H    1.34877944  -1.30744946  -1.21994948
H    3.02280903  -0.93976963  -1.66318941
H    1.71491933   0.21320991  -2.03617930
H    2.54645896  -0.60323977   0.67637974
H    4.17533875   0.99227965  -0.59841979
H    1.41982949   2.51504898  -0.41256985
H    2.74151874   2.84531879  -1.55408943
H    2.60942888   3.93989849   1.15767956
H    5.22532845   3.26770878  -0.32835987
H    5.08201838   4.27449846   1.12148952
H    4.35402822   4.80773830  -0.40077984
H    4.34425831   1.67058945   1.80021930
H    2.58057904   1.66695940   2.01676917

