%chk=mol_4710.chk
# wB97XD/Def2SVP opt pop=full gfinput

C 4 H 7 N 1 O 2

1 2
C    1.942166  -0.116823   0.105711
C    4.786828  -0.218792  -0.089686
N    5.871757  -2.614455  -0.244209
C    6.133881   1.938387  -0.075835
C    8.918128   2.133954  -0.095620
O   10.115572  -0.033297   0.502554
O   10.004966   4.116145  -0.547170
H    1.230079   1.822735   0.223347
H    1.304780  -1.126995   1.795769
H    1.081547  -1.004956  -1.553582
H    4.525478  -3.998906  -0.099475
H    6.697492  -2.852504  -1.987349
H    5.207159   3.768114  -0.016837
H    8.871395  -1.375003   0.868367

