%chk=mol_5612.chk
# wB97XD/Def2SVP opt pop=full gfinput

C 5 H 11 N 1 O 1

1 2
N    3.633830  -0.541142  -2.546217
C    4.560552   0.259384  -0.066745
C    5.967245   2.791409  -0.140596
C    4.352738   5.016297  -0.978311
C    5.699678   7.199290   0.263995
C    6.476394   6.064944   2.771737
O    6.886465   3.417116   2.349950
H    2.747643  -2.242387  -2.359266
H    5.133951  -0.853174  -3.715069
H    5.813856  -1.199938   0.703810
H    2.965207   0.387734   1.249071
H    7.635911   2.629233  -1.362530
H    2.430547   4.866309  -0.220626
H    4.230643   5.197011  -3.032633
H    7.382196   7.704792  -0.836638
H    4.530316   8.890444   0.470636
H    8.194873   6.922350   3.531842
H    4.968430   6.250572   4.175218

