%chk=mol_5122.chk
# wB97XD/Def2SVP opt freq pop=full gfinput

C 4 H 12 N 2 O 1

1 2
C    2.81798887  -0.75290972  -1.00910962
N    2.58974886  -0.00699000   0.22303993
C    3.08682895   1.38841951   0.12036996
C    2.56231904   2.20772934   1.33881950
N    3.00848889   1.68871939   2.64263916
C    4.63139868   1.47484946   0.03867998
O    5.26752806   0.90044963   1.17807949
H    2.24162912  -1.68405938  -0.98454964
H    3.87329841  -1.02321959  -1.13081956
H    2.49207902  -0.19400991  -1.89421928
H    3.11360884  -0.46292984   0.97216964
H    2.66368914   1.85236931  -0.77445972
H    1.46513939   2.22512913   1.32536948
H    2.90168881   3.24298882   1.24290943
H    2.49393892   0.81740969   2.81246877
H    2.68178892   2.32705927   3.36998868
H    4.94599819   2.51989913  -0.03575999
H    5.00937796   0.95757967  -0.84883964
H    4.73669815   1.19794965   1.95761919

