%chk=mol_6450.chk
# wB97XD/Def2SVP opt freq pop=full gfinput

C 4 H 5 N 1 O 1 S 1

1 2
C    0.93898964  -0.02561999   0.00516000
C    2.42379904   0.04198998   0.00228000
C    3.17072868   1.20404959   0.00271000
O    2.75041914   2.46364903   0.00549000
S    4.83279800   0.79895967  -0.00103000
N    4.61373854  -0.84327966  -0.00300000
C    3.30593872  -1.08585966  -0.00088000
H    0.58808982  -1.06242955  -0.00672000
H    0.53067982   0.47954983  -0.87613970
H    0.53551978   0.45785984   0.90071964
H    3.55775881   3.00748897   0.00508000
H    3.00077891  -2.12509942  -0.00174000

