%chk=mol_1924.chk
# wB97XD/Def2SVP opt freq pop=full gfinput

C 5 H 10 N 2

1 2
N    0.99373960  -0.01267000   0.04758998
C    2.46606898  -0.01841999  -0.02794999
C    2.97173882  -1.23999953  -0.82469970
C    3.31743860  -0.67245972  -2.16371918
C    3.35056877   0.66479975  -2.14309907
C    3.02888894   1.22335947  -0.79351968
N    4.25285816   1.77169931  -0.21077992
H    0.68143976   0.80632973   0.56662977
H    0.67345977  -0.83020973   0.56338978
H    2.83914876  -0.05497998   1.00257957
H    2.21870923  -2.03038931  -0.90710968
H    3.86651850  -1.66795933  -0.35907987
H    3.53540874  -1.27814960  -3.03264880
H    3.59638858   1.28778946  -2.99184895
H    2.28071904   2.01985931  -0.86943966
H    4.95753813   1.03650963  -0.16877994
H    4.06919861   2.04327917   0.75270969

