%chk=mol_3648.chk
# wB97XD/Def2SVP opt pop=full gfinput

C 5 H 4 O 2

1 2
O    5.271372  -2.089640   0.068899
C    4.201598  -0.031483  -0.014267
C    5.405883   2.409949  -0.002910
C    4.417310   4.826342  -0.088647
C    6.499997   6.507744  -0.025077
C    8.625542   5.020095   0.095186
O    7.983186   2.537222   0.109529
H    2.119744   0.034790  -0.108017
H    2.436594   5.318804  -0.185269
H    6.461143   8.550217  -0.062115
H   10.629653   5.411533   0.177559

