%chk=mol_0410.chk
# wB97XD/Def2SVP opt pop=full gfinput

C 4 H 12 N 2

1 2
C    2.370265  -0.322274   0.777528
C    4.817384   0.218528  -0.679640
C    4.894523  -1.232007  -3.202991
N    4.772541  -3.972185  -2.832529
C    5.052032   3.087416  -1.106661
N    7.472884   3.783648  -2.238494
H    2.324099   0.742228   2.553171
H    2.202703  -2.327103   1.261109
H    0.704528   0.213709  -0.330041
H    6.406606  -0.404912   0.501722
H    6.636586  -0.801036  -4.235084
H    3.308060  -0.655565  -4.403761
H    6.305525  -4.538329  -1.812682
H    4.924551  -4.839154  -4.546606
H    4.865365   4.086684   0.698122
H    3.524377   3.752996  -2.337005
H    8.904389   3.293056  -1.043923
H    7.562079   5.701719  -2.413728

