%chk=mol_4354.chk
# wB97XD/Def2SVP opt pop=full gfinput

C 5 H 9 N 1 O 1

1 2
C    1.751587  -0.721101   0.030443
C    4.373355   0.220626   0.518938
C    5.246371   2.608313   0.395066
C    3.650025   4.875626  -0.248291
N    7.778037   2.987317   0.908656
C    9.109293   5.201962   0.893387
O   11.370180   5.306521   1.383072
H    1.821526  -2.261719  -1.348943
H    0.469125   0.710367  -0.714808
H    0.941367  -1.466673   1.781161
H    5.680195  -1.288831   1.023608
H    1.657781   4.427005  -0.540481
H    4.333180   5.767236  -1.986782
H    3.719454   6.264518   1.285316
H    8.862947   1.472153   1.356181
H    8.008678   6.895611   0.405819

