%chk=mol_6006.chk
# wB97XD/Def2SVP opt freq pop=full gfinput

C 5 H 7 N 1 O 1

1 2
O    0.93789965  -0.08037997  -0.38193986
C    2.14089918  -0.01743999  -0.13114995
C    2.81584883   1.28827953   0.23334990
C    4.28041840   1.27343953  -0.17596994
N    4.91007805   0.03947999   0.27578989
C    4.25210810  -1.15658963   0.11955995
C    2.93854904  -1.26673949  -0.09535997
H    2.30087900   2.11168909  -0.27233991
H    2.71422887   1.42500949   1.31585944
H    4.80307817   2.13284922   0.25617990
H    4.37184858   1.34303939  -1.26667953
H    5.91689777  -0.01116000   0.12173995
H    4.88963842  -2.03542924   0.18083993
H    2.42496896  -2.20782924  -0.22993992

