%chk=mol_0520.chk
# wB97XD/Def2SVP opt freq pop=full gfinput

C 5 H 7 N 1

1 2
N    0.93050963   0.00218000   0.06142998
C    2.37777901   0.00066000   0.10165996
C    2.94891906   1.16192961  -0.65695977
C    3.73922849   0.71902972  -1.64920938
C    3.73661876  -0.72220975  -1.64644933
C    2.94686890  -1.16138959  -0.65515977
H    0.58795977   0.81640971   0.56508982
H    0.58651978  -0.80966967   0.56763983
H    2.73730898   0.00143000   1.13603961
H    2.75513887   2.19866920  -0.43043986
H    4.27774811   1.32756948  -2.35794902
H    4.27496862  -1.33239949  -2.35531902
H    2.75193882  -2.19664907  -0.42786983

