%chk=mol_0451.chk
# wB97XD/Def2SVP opt freq pop=full gfinput

C 4 H 8 N 2

1 2
C    0.82079971  -0.71962970   0.14051995
C    2.09553933   0.00145000  -0.22674991
N    3.17741895  -0.68913978  -0.42761981
N    2.17258906   1.36047947  -0.34703985
C    1.25344944   2.35820889  -0.18517993
C    1.47356939   3.66614866  -0.35236987
H   -0.05100998  -0.06644998   0.14179996
H    0.93721962  -1.15988958   1.13517952
H    0.64482975  -1.52512944  -0.57905978
H    2.98768902  -1.68928945  -0.30034989
H    3.10626864   1.66749930  -0.60448974
H    0.26144990   2.02784920   0.10848996
H    2.44490910   4.05038834  -0.64402974
H    0.67461973   4.38449860  -0.20003992

