%chk=mol_3979.chk
# wB97XD/Def2SVP opt pop=full gfinput

C 5 H 11 N 1 O 1

1 2
C    1.999160  -0.088364  -0.030122
C    4.816799  -0.078443  -0.041177
C    6.351483  -1.349000  -2.078907
N    5.161541  -2.651550  -4.196156
C    6.236776   1.496776  -1.953240
C    8.514841   2.966889  -1.188864
O   10.005514   3.467364  -3.362654
H    1.296560   1.376741   1.249563
H    1.297354  -1.914122   0.640069
H    1.193400   0.271497  -1.899931
H    5.555871  -0.186554   1.869393
H    8.095323  -2.244295  -1.449722
H    3.674572  -1.656080  -4.908942
H    4.441480  -4.348770  -3.635398
H    5.147501   2.502848  -3.367794
H    9.681445   1.956093   0.188368
H    7.955842   4.775602  -0.358953
H   10.207715   1.868372  -4.248955

