%chk=mol_6716.chk
# wB97XD/Def2SVP opt freq pop=full gfinput

C 3 H 1 N 1 O 2 S 1

1 2
O    1.06164956   0.06011998  -0.17647994
S    2.47400904  -0.02950999   0.08599997
O    3.17136860  -0.67336977   1.16805959
C    3.08810902  -0.87381971  -1.33807945
C    3.50528884  -1.45177948  -2.30740905
C    3.06147885   1.64499938   0.07769997
N    3.45964885   2.74040914   0.05048998
H    3.87065864  -1.97046924  -3.16279864

