%chk=mol_5197.chk
# wB97XD/Def2SVP opt freq pop=full gfinput

C 5 H 9 N 1 O 1

1 2
C    1.77325928  -0.56618977  -1.37260950
N    3.16177893  -0.39663985  -1.03029966
C    3.56251884   0.62573975  -0.20598991
O    2.80021882   1.42982936   0.31558987
C    5.03467846   0.66406977  -0.00811000
C    5.58711767   1.57935941   0.80338967
C    7.05225754   1.68772936   1.06599963
H    1.64548934  -1.54352939  -1.84359932
H    1.48256946   0.22394991  -2.07017922
H    1.15546954  -0.50174981  -0.47252980
H    3.84666848  -0.98628962  -1.48109949
H    5.64264774  -0.06433998  -0.52870977
H    4.94995832   2.29841900   1.31720960
H    7.62948704   0.94953966   0.50047982
H    7.25221729   1.53515947   2.13081908
H    7.40818739   2.68431878   0.78814971

