%chk=mol_4294.chk
# wB97XD/Def2SVP opt freq pop=full gfinput

C 5 H 8 N 2

1 2
C    0.94236964  -1.14874959   0.88791966
C    1.17960954  -0.35159987  -0.35800987
C    0.95484960   1.12583959  -0.43221983
C   -0.25314990   1.55973935   0.39430985
N   -1.43122947   0.71803969   0.14858995
C   -1.19154966  -0.51771981  -0.12414996
N   -0.00229000  -1.21704960  -0.23866990
H    1.49294949  -2.06985927   1.02352965
H    0.54601979  -0.69498974   1.78491926
H    1.90436924  -0.71293974  -1.07561958
H    1.85035932   1.65922928  -0.09599996
H    0.79073966   1.39748955  -1.48224950
H   -0.02087999   1.54587948   1.46554947
H   -0.50384980   2.59597898   0.14172995
H   -2.04674911  -1.17915952  -0.34221986

