%chk=mol_6748.chk
# wB97XD/Def2SVP opt freq pop=full gfinput

C 5 H 10 N 2

1 2
C    0.78030968  -0.10503996  -0.52293980
C    2.21226907  -0.05215998  -0.03638998
C    3.24120879  -0.74797970  -0.91480964
N    3.14120889   0.70192975  -0.90153968
C    2.44001913   0.03253999   1.49074948
C    1.57374942   0.83821964   2.42928910
N    1.50103939  -0.61635977   2.41162896
H    0.71828967  -0.16928995  -1.61548936
H    0.23406991   0.79294974  -0.21802992
H    0.26836991  -0.98176968  -0.11386996
H    2.90700889  -1.24218953  -1.81917930
H    4.11635828  -1.18555951  -0.45098984
H    3.88942862   1.11971962  -0.34839985
H    3.48304868  -0.05635998   1.79418933
H    0.71604973   1.36446941   2.03082919
H    2.03457928   1.29479957   3.29603887
H    1.99848926  -1.01995957   3.20660877

