%chk=mol_2827.chk
# wB97XD/Def2SVP opt freq pop=full gfinput

C 6 H 12 O 1

1 2
C    2.03676915  -0.62901974   1.25470948
C    2.80065894  -0.29893988  -0.01921999
C    3.26956868   1.13002956  -0.01666999
C    4.53275824   1.59716940  -0.09354996
C    5.76911783   0.74664974  -0.21501993
C    4.80143785   3.08227873  -0.08496997
O    5.55986786   3.41591883   1.06828952
H    1.68548930  -1.66574943   1.22666955
H    1.16122961   0.01916999   1.37299955
H    2.67192888  -0.51005977   2.13929915
H    2.14088917  -0.44448984  -0.88208967
H    3.62131882  -1.01075959  -0.13009995
H    2.45754910   1.85564923   0.04886998
H    5.55874777  -0.31673989  -0.34140986
H    6.39308739   0.85400969   0.67842978
H    6.35659742   1.06006956  -1.08462965
H    3.88020849   3.67359877  -0.06648997
H    5.36690760   3.37799883  -0.97405958
H    5.11260796   2.99472904   1.82322931

