%chk=mol_6654.chk
# wB97XD/Def2SVP opt freq pop=full gfinput

C 5 H 7 N 1 S 1

1 2
N    2.12582922  -0.47182980  -1.34165943
C    2.46704912  -0.08609997   0.01923999
C    2.93216896   1.33438957   0.00211000
C    2.10205913   2.43605900  -0.10905996
S    2.95337892   3.91871858  -0.08641996
C    4.45300817   3.11551905   0.06906997
C    4.30420876   1.74676931   0.10395996
H    1.91580939  -1.46686947  -1.36440957
H    2.93893886  -0.33360988  -1.93924928
H    3.25114870  -0.74522972   0.40891984
H    1.59023941  -0.19183993   0.66763973
H    1.02553964   2.43572927  -0.21146992
H    5.37029791   3.68429852   0.12674995
H    5.14247847   1.06675959   0.19883992

