%chk=mol_4334.chk
# wB97XD/Def2SVP opt freq pop=full gfinput

C 5 H 7 N 1 O 1

1 2
C    0.99999964   0.00000000   0.00000000
C    2.44399905   0.00000000   0.00000000
C    3.63415861   0.00000000   0.00000000
C    5.07815790   0.00000000   0.00000000
C    5.66206789   1.39260948  -0.14109994
N    5.42180824   2.02048922  -1.33198953
O    6.35653734   1.92852926   0.71697974
H    0.60605973   1.02090967   0.01128000
H    0.60589981  -0.52018976   0.87842965
H    0.60594976  -0.50057977  -0.88977963
H    5.47027779  -0.61559975  -0.81754971
H    5.45996809  -0.43176982   0.93208969
H    4.68270826   1.70950937  -1.94822919
H    5.74387789   2.97598886  -1.41526949

