%chk=mol_5943.chk
# wB97XD/Def2SVP opt pop=full gfinput

C 4 H 5 N 1 O 2

1 2
O    2.074239   0.049681   1.546023
C    4.613748   0.014419   0.582073
C    5.040429   1.394410  -1.859774
O    7.603048   2.115057  -2.492133
N    8.943053  -0.158283  -3.099907
C    7.494824  -2.086938  -2.729842
C    4.968865  -1.428822  -1.839989
H    1.806200   1.503239   2.641837
H    6.147941  -0.010790   1.943319
H    3.493404   2.415505  -2.720828
H    8.056205  -4.062609  -3.046238
H    3.367378  -2.359966  -2.695921

