%chk=mol_4785.chk
# wB97XD/Def2SVP opt freq pop=full gfinput

C 4 H 10 N 2 O 1

1 2
C    0.85661966   0.18934993  -0.29001990
C    2.28408909  -0.22858992   0.02598999
N    3.16270900   0.94304967  -0.01162000
N    4.50105810   0.59705979   0.27263990
C    4.93905783   0.42292985   1.64427936
C    5.40194798   0.46668983  -0.77246970
O    6.58932781   0.18019992  -0.66123974
H    0.19538993  -0.68303972  -0.27095991
H    0.78769970   0.64291972  -1.28462958
H    0.48242980   0.91158962   0.44352981
H    2.61175895  -0.96988964  -0.71188974
H    2.31003928  -0.70044976   1.01495957
H    2.84614897   1.64385939   0.66198975
H    4.15312862   0.71623975   2.34570909
H    5.83118773   1.03213966   1.81788933
H    5.19784784  -0.62902981   1.79668927
H    4.93538809   0.64531970  -1.75620925

