%chk=mol_4778.chk
# wB97XD/Def2SVP opt pop=full gfinput

C 4 H 8 N 2 O 1

1 2
C    2.534123  -1.509702  -0.119601
C    5.364593  -1.285826   0.144961
N    6.706374  -3.260760   0.671571
N    6.436955   1.034852  -0.143865
C    9.148221   1.419052  -0.273047
C    9.717406   4.051951  -1.238810
O    8.089786   5.602339  -1.834584
H    1.762888   0.116861  -1.132929
H    1.687355  -1.599842   1.762585
H    2.058857  -3.231129  -1.158950
H    5.566132  -4.818575   0.838547
H    5.379540   2.520876  -0.760407
H   10.027530   0.075287  -1.578035
H    9.998050   1.218836   1.601524
H   11.742985   4.515784  -1.400060

