%chk=mol_6919.chk
# wB97XD/Def2SVP opt freq pop=full gfinput

C 7 H 10

1 2
C    1.04603958   0.01461999   0.00624000
C    2.37663913  -0.04087999   0.01612999
C    3.31609893  -1.20751953   0.08566996
C    4.62067842  -0.38894984  -0.03406999
C    4.36240816   0.71475971  -1.12933958
C    3.27989888   1.13704956  -0.05621998
C    4.45422792   0.82008970   0.95163965
H    0.44998986  -0.89082968   0.05876998
H    0.51789981   0.96101964  -0.05262998
H    3.19509888  -1.89316928  -0.75725973
H    3.25964880  -1.73899925   1.03921962
H    5.57159805  -0.92050970  -0.04526998
H    3.98983836   0.36403987  -2.09710932
H    5.17701769   1.42732942  -1.30428958
H    2.85602903   2.13931918  -0.08994997
H    5.27767801   1.54340935   0.98028958
H    4.16726828   0.57729977   1.97980928

