%chk=mol_5583.chk
# wB97XD/Def2SVP opt freq pop=full gfinput

C 4 H 6 N 2 O 1

1 2
N    0.88217968  -0.11124996   0.00596000
C    2.17793918  -0.08653997  -0.00851000
C    2.97863889   1.23482955  -0.04014998
O    4.40666819   1.18612957  -0.00258000
C    4.96632814  -0.06885997   0.00572000
C    4.27630854  -1.21456957   0.00503000
N    2.91356897  -1.23427951  -0.00242000
H    0.50841981   0.84415966  -0.00328000
H    2.64627886   1.84289932   0.80958968
H    2.69066906   1.76922929  -0.95312959
H    6.04650736  -0.01433000   0.01769999
H    4.75942850  -2.18510914   0.01493999
H    2.41803908  -2.11608911   0.01965999

