%chk=mol_6738.chk
# wB97XD/Def2SVP opt freq pop=full gfinput

C 5 H 8 N 2

1 2
C    1.03637958   0.04448998   0.01871999
C    2.52089906  -0.03691998   0.01694999
C    3.24967861  -1.16307962  -0.03981999
C    4.63339853  -0.67818969  -0.03056999
N    5.64632797  -1.44691944  -0.19406992
N    4.68946791   0.67368978   0.13396995
C    3.34758878   1.22160959   0.07249998
H    0.57780975  -0.94834965  -0.03984999
H    0.68551975   0.62823975  -0.83792967
H    0.68221974   0.52551979   0.93573964
H    2.95153904  -2.19285917  -0.10336996
H    6.49661779  -0.88317966  -0.12955995
H    5.42065811   1.17276955  -0.35338986
H    3.21022868   1.82859933  -0.82727969
H    3.13174891   1.81213927   0.96716964

