%chk=mol_1830.chk
# wB97XD/Def2SVP opt freq pop=full gfinput

C 5 H 10 N 2

1 2
C    1.11679959   1.17285955  -0.80347967
N    2.42868924   0.57501978  -0.73374975
C    3.54515862   1.16739964  -0.19210993
N    3.58487844   2.43079925   0.09694996
C    4.78664827   0.36487988   0.09969996
C    5.75334787   0.94216967   1.08960950
C    5.00556803  -0.80391973  -0.52701980
H    0.40791985   0.45845982  -1.23238957
H    1.12543952   2.05895925  -1.44494951
H    0.76128972   1.45014942   0.19319992
H    2.40367913  -0.43476981  -0.64088976
H    2.70575905   2.87298894  -0.16343994
H    5.25594807   1.12933958   2.04715919
H    6.17301798   1.88414931   0.72088975
H    6.59119749   0.26335990   1.28363955
H    4.33435822  -1.20126951  -1.27879953
H    5.90449810  -1.37895942  -0.32870987

