%chk=mol_0294.chk
# wB97XD/Def2SVP opt pop=full gfinput

C 5 H 7 N 1

1 2
C    1.973517  -0.035111  -0.117768
C    4.780837   0.110662   0.009373
N    6.311629  -1.192077  -1.872700
C    6.261664   1.574501  -1.944075
C    8.480732   2.909857  -1.165753
C   10.344096   4.036984  -0.522547
H    1.134459   1.401856   1.110762
H    1.322241  -1.889348   0.527574
H    1.257027   0.268568  -2.035537
H    5.482265   0.025927   1.932264
H    5.231839  -1.913423  -3.296495
H    5.235127   2.392015  -3.520654
H   12.004277   5.019585   0.046336

