%chk=mol_4593.chk
# wB97XD/Def2SVP opt freq pop=full gfinput

C 4 H 10 N 2 O 1

1 2
C    3.26642871  -0.79654968  -1.33838952
C    3.02821898  -0.16698994   0.02530999
C    3.11876869   1.35748947   0.00545000
O    2.68821883   1.85665941   1.26855958
C    4.54022837   1.81867933  -0.27632987
N    5.36442804   2.03686929   0.70226973
N    6.59211731   2.41149902   0.27861989
H    3.13883901  -1.88199937  -1.27880955
H    4.28027868  -0.59882975  -1.69864941
H    2.55598903  -0.41216984  -2.07681918
H    3.74749851  -0.57720977   0.74596977
H    2.03709936  -0.46470982   0.38995987
H    2.46057892   1.77760935  -0.76171970
H    3.49311876   1.89692926   1.82429922
H    4.83202791   1.91221929  -1.33833957
H    7.12420750   2.78429890   1.07067966
H    7.13462734   1.59987938  -0.03062999

