%chk=mol_2436.chk
# wB97XD/Def2SVP opt pop=full gfinput

C 6 H 10 O 1

1 2
C    1.670971   0.251541  -0.169168
C    4.455350  -0.053423   0.136041
C    5.982816  -1.604812  -1.689623
O    4.650219  -2.643368  -3.812182
C    6.247718   1.236750  -1.671160
C    8.557265   2.375046  -0.650425
C   10.857459   2.248510  -1.698240
H    1.017277   1.882640   0.921884
H    0.690298  -1.426743   0.535662
H    1.117395   0.545526  -2.140795
H    4.969980  -0.190976   2.115057
H    7.502043  -2.733300  -0.894464
H    5.772017  -2.830640  -5.255820
H    5.422890   2.270260  -3.240559
H    8.353610   3.441135   1.098006
H   11.177862   1.232744  -3.450300
H   12.465768   3.166860  -0.817458

