%chk=mol_5123.chk
# wB97XD/Def2SVP opt freq pop=full gfinput

C 4 H 12 N 2 O 1

1 2
C    3.01987886  -0.06089998   1.62577939
N    3.03580880   0.50366980   0.27882990
C    3.57376862   1.87724936   0.26255989
C    5.09838820   1.94679928   0.51006985
N    5.83647776   0.96399969  -0.32455990
C    5.64489794   3.35818863   0.24666990
O    7.06204748   3.35818863   0.42305985
H    2.53959918  -1.04376960   1.59787941
H    2.45344925   0.56855983   2.31919909
H    4.03090858  -0.20784993   2.01562929
H    2.07440925   0.53087980  -0.06537998
H    3.03956866   2.51048923   0.98118961
H    3.36159873   2.28860927  -0.73242974
H    5.31603765   1.68775940   1.55294943
H    5.64281797   1.17064953  -1.30673945
H    5.35029793   0.06941997  -0.18240994
H    5.21212816   4.08452845   0.94129962
H    5.43344784   3.68656850  -0.77668971
H    7.34343719   2.46373892   0.13415994

