%chk=mol_7044.chk
# wB97XD/Def2SVP opt freq pop=full gfinput

C 6 H 9 N 1

1 2
C    2.64812899  -1.24145961   0.52989984
C    2.24062920  -0.02351999   0.15003994
C    3.06650901   1.17562950   0.03915999
C    2.47397900   2.32849908  -0.32061988
C    4.50550842   1.06385958   0.36096987
C    5.44322777   0.48841980  -0.67296976
N    5.46701813   1.90719926  -0.35919985
H    1.93936920  -2.06299925   0.57633978
H    3.67355871  -1.46440935   0.80213970
H    1.18720949   0.09343996  -0.10139997
H    1.41596949   2.39939904  -0.54695982
H    3.05511904   3.24222875  -0.40891984
H    4.72733831   0.89893967   1.41041946
H    5.05092812   0.22591992  -1.64815938
H    6.28428793  -0.10321996  -0.33484986
H    6.25271749   2.13892913   0.24895991

