%chk=mol_1358.chk
# wB97XD/Def2SVP opt freq pop=full gfinput

C 6 H 13 N 1

1 2
C    1.14227951   0.09687996   0.15824994
C    2.66171908   0.00534000  -0.03266999
C    2.95037889  -0.71946973  -1.35352945
N    3.24243879   1.35797954  -0.06757998
C    3.22977877   1.98966920   1.28268945
C    4.63668823   2.52899909   0.96649963
C    4.73064852   1.31277955   0.02876999
H    0.88512969   0.55574977   1.11864960
H    0.69176978  -0.90165967   0.14366995
H    0.67322975   0.68729979  -0.63618976
H    3.07722902  -0.59505975   0.78850973
H    2.55605912  -0.16263995  -2.21068907
H    2.48676896  -1.71186936  -1.35722959
H    4.02499866  -0.86157966  -1.50695944
H    3.20795870   1.30000949   2.13642931
H    2.46019912   2.75414896   1.42355955
H    4.64167833   3.49639869   0.45074984
H    5.34395790   2.55602908   1.79847932
H    5.25586796   1.49208939  -0.91376966
H    5.15409803   0.42145985   0.50925982

