%chk=mol_3710.chk
# wB97XD/Def2SVP opt pop=full gfinput

C 6 H 6 O 1

1 2
O    2.146105  -1.195101  -0.027042
C    4.410829  -0.720156   0.024661
C    5.337947   1.910211  -0.019559
C    7.821501   2.404828   0.077460
C    8.900459   5.027465   0.044182
C   10.540666   5.333317  -2.173261
C   11.884752   5.595101  -3.983883
H    5.859719  -2.214570   0.112949
H    3.905913   3.369797  -0.140558
H    9.185921   0.871183   0.204620
H    9.990150   5.327176   1.779158
H    7.400772   6.455682   0.012907
H   13.074430   5.829465  -5.592342

