%chk=mol_4390.chk
# wB97XD/Def2SVP opt freq pop=full gfinput

C 5 H 13 N 1 O 1

1 2
C   -0.87619966   0.01027000   0.39567986
C    0.57781976   0.05321998  -0.05580998
C    1.51316941   0.82934970   0.88776970
C    1.18893957   2.34031916   0.88747966
N    2.17335916   3.09122872   1.67864931
O    1.41193950   0.36601987   2.24658918
C    1.98138916  -0.92035967   2.44968915
H   -1.46280944  -0.60456973  -0.29494989
H   -1.32143950   1.00931966   0.40911984
H   -0.97336960  -0.42596984   1.39459944
H    0.63147974   0.48476982  -1.06231964
H    0.93201965  -0.98035961  -0.14403994
H    2.54809904   0.70120972   0.54254979
H    0.20397992   2.51420903   1.33402944
H    1.18187952   2.73389888  -0.13377994
H    2.25209904   2.61840892   2.58327913
H    1.80236924   4.01879835   1.87734926
H    2.02271914  -1.10740960   3.52632856
H    2.99842882  -0.96971965   2.04952931
H    1.35649943  -1.69409931   1.99596930

