%chk=mol_0757.chk
# wB97XD/Def2SVP opt freq pop=full gfinput

C 4 H 6 O 2

1 2
C    0.90336967   0.06095998  -0.24901991
C    2.42364907   0.13742995  -0.27608988
C    2.95026898  -0.71936977  -1.39911950
O    3.89457870  -0.40095985  -2.11505914
C    2.91182876   1.56316948  -0.37269986
O    2.21473932   2.54374886  -0.12423996
H    0.49493983   0.62644976   0.59510976
H    0.56194979  -0.97560960  -0.15602994
H    0.47023985   0.47163984  -1.16806960
H    2.82478881  -0.28200990   0.65489972
H    2.49130917  -1.71813929  -1.49709940
H    3.98735857   1.69021940  -0.58989978

