%chk=mol_0784.chk
# wB97XD/Def2SVP opt freq pop=full gfinput

C 5 H 8 O 1

1 2
C    0.92551965   0.04991998   0.20550992
C    2.43461919   0.01539999  -0.00690000
O    2.68533897  -0.64701974  -1.25064945
C    3.02738905   1.43281937   0.00000000
C    4.47131872   1.41973948  -0.00560000
C    5.66141796   1.40895951  -0.01021000
H    0.66912979   0.50486982   1.16673946
H    0.51224983  -0.96462959   0.17821993
H    0.42979985   0.61272973  -0.59335983
H    2.89125896  -0.59462976   0.78128970
H    2.43523908  -0.04455998  -1.97156930
H    2.67576885   1.97132933   0.88809967
H    2.66897893   1.98661923  -0.87629968
H    6.72701788   1.39197946  -0.01696999

