%chk=mol_2321.chk
# wB97XD/Def2SVP opt pop=full gfinput

C 7 H 12

1 2
C    2.890979  -1.349208  -1.117584
C    4.587386   0.219548  -2.149450
C    5.676019   2.477960  -0.823580
C    8.549196   2.271885  -0.568335
C    9.638567   4.578618   0.796123
C   12.459059   4.401682   1.047418
C   14.076419   6.094877   0.089327
H    2.160070  -2.949692  -2.176057
H    2.190986  -1.080092   0.792400
H    5.219801  -0.126876  -4.076026
H    4.824641   2.704123   1.052521
H    5.190208   4.172912  -1.913083
H    9.410401   2.100298  -2.448121
H    9.036916   0.546565   0.475946
H    8.819541   4.718873   2.694712
H    9.102678   6.305015  -0.220115
H   13.202401   2.797777   2.098106
H   13.429415   7.733364  -0.961493
H   16.100222   5.872702   0.343307

