%chk=mol_3762.chk
# wB97XD/Def2SVP opt freq pop=full gfinput

C 5 H 6 O 2

1 2
O    1.06960964  -0.01031000   0.46503982
C    2.41999912   0.00000000   0.00000000
C    2.45009923  -0.59748977  -1.39775956
C    2.10316920  -2.05739927  -1.31124949
O    2.87275887  -2.95017886  -1.65246940
C    2.90201902   1.36116946   0.00000000
C    3.29929876   2.48306894   0.00000000
H    1.05185962   0.51699984   1.28391945
H    3.00649905  -0.61548978   0.69170976
H    3.44171858  -0.50058979  -1.85392928
H    1.71567941  -0.12462995  -2.05894923
H    1.09224951  -2.29281902  -0.93598962
H    3.65458870   3.48827863  -0.00411000

