%chk=mol_6171.chk
# wB97XD/Def2SVP opt pop=full gfinput

C 4 H 5 N 1 O 2

1 2
O    4.730098  -0.893085  -2.516397
C    4.557226   0.060792  -0.001266
C    5.335283   2.757999  -0.006992
N    3.928665   4.800169   0.280813
C    5.631611   6.747589   0.140690
C    8.024363   5.808017  -0.186459
O    7.869065   3.241050  -0.263258
H    4.099194  -2.615192  -2.467302
H    5.790310  -1.056924   1.225298
H    2.602550  -0.126914   0.646608
H    5.049367   8.700318   0.285349
H    9.886556   6.617273  -0.384654

