%chk=mol_2513.chk
# wB97XD/Def2SVP opt freq pop=full gfinput

C 5 H 10 O 2

1 2
C    0.90986967  -0.21614993  -0.16205995
C    2.39550900  -0.15370993  -0.15521994
O    3.01056886  -0.33110988  -1.43831944
C    3.11872888   0.97253960  -0.84679967
C    4.51069832   1.36059940  -0.45746982
C    4.51934814   2.22540903   0.79850972
O    3.88707852   3.47724867   0.55589980
H    0.50440979   0.41466984   0.63299978
H    0.57541978  -1.24425960   0.01259000
H    0.48927981   0.12089996  -1.11452949
H    2.84502888  -0.62917972   0.70582974
H    2.54695916   1.78324938  -1.27830958
H    4.96015835   1.91128933  -1.29214954
H    5.12388802   0.46795985  -0.28240991
H    5.54622793   2.42043924   1.12197959
H    3.99071860   1.73248947   1.62092936
H    4.40783834   3.94330859  -0.11937995

