%chk=mol_0816.chk
# wB97XD/Def2SVP opt pop=full gfinput

C 5 H 8 O 1

1 2
C    4.938232   0.228600  -2.837310
O    7.097868   1.524385  -1.897946
C    6.735664   3.342283  -0.074550
C    4.497038   4.141014   0.813546
C    9.068304   4.415477   0.910905
C   11.403893   3.784687   0.166239
H    5.583479  -1.151013  -4.233175
H    3.641370   1.531869  -3.785405
H    3.980330  -0.798938  -1.320843
H    2.709263   3.408197   0.140426
H    4.378325   5.587316   2.262777
H    8.881372   5.844413   2.377105
H   11.737788   2.376142  -1.288018
H   13.047331   4.675844   1.008604

