%chk=mol_2744.chk
# wB97XD/Def2SVP opt freq pop=full gfinput

C 6 H 8 O 1

1 2
C    2.88996887  -1.13018954   0.23696992
C    2.26956916   0.04693998   0.09443997
C    2.89348888   1.35700953  -0.01963999
C    2.11378908   2.44737911  -0.13051996
C    4.39646864   1.50366950   0.01418999
C    4.95765829   1.27979958  -1.36914945
O    5.68568802   2.08753920  -1.94289923
H    2.30521917  -2.04293919   0.31720990
H    3.96612859  -1.24329960   0.28868988
H    1.17903948   0.02978999   0.06459998
H    1.02929962   2.38886905  -0.14930995
H    2.54216909   3.44326878  -0.21388991
H    4.86781836   0.80516970   0.71186978
H    4.68354845   2.51095891   0.33992985
H    4.73185825   0.30549988  -1.83397937

