%chk=mol_4370.chk
# wB97XD/Def2SVP opt freq pop=full gfinput

C 5 H 9 N 1 O 1

1 2
C    2.52993917  -0.48957983   1.37279952
C    2.52884912   0.13112995  -0.01796999
C    2.97305870   1.57659936  -0.00384000
C    2.07267928   2.57095909  -0.04211999
N    4.31019831   1.90449929   0.01962999
C    5.39669800   1.07487953   0.03766999
O    6.54807758   1.49389946   0.04910998
H    2.20418930  -1.53318942   1.31837952
H    1.84290934   0.04189998   2.04002929
H    3.52562857  -0.47049984   1.82612932
H    1.51177943   0.05722998  -0.42526984
H    3.15211892  -0.45805985  -0.70019978
H    1.00654960   2.36475897  -0.06818998
H    2.36180902   3.61719871  -0.04250998
H    4.56677866   2.88605905   0.01666999
H    5.16813803   0.00023000   0.04175998

