%chk=mol_2512.chk
# wB97XD/Def2SVP opt pop=full gfinput

C 6 H 8 O 1

1 2
C    1.948931  -0.161609  -0.097699
C    4.733367   0.212745  -0.125723
O    5.934326  -0.503914  -2.443888
C    5.946344   2.142931  -1.840593
C    8.471075   3.225630  -1.191529
C    9.491641   4.161479  -3.595431
C   10.342433   4.930560  -5.552034
H    1.085478   1.047721   1.340269
H    1.498742  -2.127869   0.357895
H    1.084930   0.290508  -1.922683
H    5.641135  -0.306362   1.630021
H    4.725336   3.405079  -2.891923
H    9.728877   1.810736  -0.355873
H    8.248523   4.773883   0.161666
H   11.097284   5.601148  -7.295911

