%chk=mol_3843.chk
# wB97XD/Def2SVP opt pop=full gfinput

C 7 H 12

1 2
C    1.793974   0.010375   0.036302
C    4.667718   0.018784   0.036056
C    5.720938   2.707637   0.000000
C    8.449702   2.707637   0.000000
C   10.698779   2.707637   0.000000
C   13.427544   2.707637   0.000000
C   14.482369   5.378784  -0.002287
H    1.083758  -1.931905   0.062323
H    1.050102   0.943332  -1.653246
H    1.050253   0.988194   1.700357
H    5.350230  -1.034984  -1.614166
H    5.350381  -0.990424   1.713849
H    5.018640   3.748310   1.648295
H    5.018621   3.703750  -1.675601
H   14.139536   1.697276  -1.661391
H   14.139536   1.700111   1.663129
H   13.862350   6.427847  -1.676395
H   16.550808   5.334924  -0.002249
H   13.862350   6.430700   1.670045

