%chk=mol_4306.chk
# wB97XD/Def2SVP opt freq pop=full gfinput

C 5 H 11 N 1 O 1

1 2
C    2.17697906  -0.55604976  -1.43868935
C    2.47617912  -0.03259999  -0.04187998
C    3.26400876   1.27543950  -0.08993997
O    4.55091858   1.04179966  -0.72250974
C    2.48377919   2.52745914  -0.57759976
N    3.05933881   3.29984879   0.54550976
C    3.32256889   2.03396916   1.26594949
H    1.59950948  -1.48395944  -1.37898946
H    3.09817863  -0.76666975  -1.99107921
H    1.59665942   0.16917995  -2.01760912
H    3.04306889  -0.78836972   0.51498979
H    1.52781951   0.10816996   0.49106982
H    4.99495792   1.90579927  -0.70696974
H    1.39107955   2.44350910  -0.53200978
H    2.76050901   2.90127897  -1.56840932
H    3.90317845   3.81688857   0.30040988
H    4.28622866   2.00423932   1.78400922
H    2.53663898   1.77246928   1.98452926

