%chk=mol_5022.chk
# wB97XD/Def2SVP opt freq pop=full gfinput

C 5 H 11 N 1 O 1

1 2
C    2.10678911  -0.26932991  -1.55829942
N    2.35737896   0.11029995  -0.17408992
C    3.07278895   1.38170946  -0.06835998
C    2.27686930   2.59996915  -0.49529982
C    3.04855871   3.72291875   0.16687994
O    3.60778880   3.19502878   1.37843955
C    3.42252874   1.76961935   1.36928952
H    1.60811937  -1.24433959  -1.58165944
H    3.03810883  -0.35632989  -2.12715912
H    1.44375944   0.44352981  -2.05928922
H    2.90576887  -0.62375981   0.27448988
H    4.00668859   1.33799946  -0.64610976
H    1.25931942   2.56053901  -0.08576997
H    2.20306921   2.72779918  -1.57905936
H    3.87877870   4.05836868  -0.46433982
H    2.41711903   4.58546829   0.39819986
H    4.33262825   1.27826953   1.72677946
H    2.60779881   1.53969932   2.06597924

