%chk=mol_0464.chk
# wB97XD/Def2SVP opt pop=full gfinput

C 4 H 8 N 2

1 2
C    2.169065  -0.043407  -0.117995
N    4.690754  -0.057712   0.978557
C    6.223888  -2.207106   0.159096
C    8.850910  -1.300887   0.855101
C    8.372621   1.476481   0.932145
N    6.020025   2.136581   0.956126
H    1.204663  -1.843447   0.221344
H    2.231596   0.302054  -2.158200
H    1.017126   1.440652   0.751393
H    6.099677  -2.494061  -1.890104
H    5.720881  -3.964192   1.125105
H   10.273969  -1.764078  -0.566710
H    9.467188  -1.930204   2.725382
H    9.946328   2.826690   1.006770

