%chk=mol_5647.chk
# wB97XD/Def2SVP opt freq pop=full gfinput

C 5 H 5 N 1 O 1

1 2
N    0.99999964   0.00000000   0.00000000
C    2.15100908   0.00000000   0.00000000
C    3.59500861   0.00000000   0.00000000
C    4.16854858  -1.24037945   0.69324976
O    4.66558838  -0.85376972   1.99717927
C    4.69344807   0.52176982   1.94261932
C    4.13434839   1.07664955   0.87342966
H    3.98143864   0.07885997  -1.02121961
H    5.02321815  -1.63576949   0.12964995
H    3.44460869  -2.05360913   0.81925970
H    5.13851833   1.00277960   2.79891896
H    4.04834843   2.13753915   0.68925977

