%chk=mol_0634.chk
# wB97XD/Def2SVP opt pop=full gfinput

C 5 H 8 O 1

1 2
C    1.896019   0.056352   0.094089
C    4.689885   0.058355  -0.078669
C    6.249551  -1.900082  -0.288334
O    8.791422  -1.340836  -0.366607
C    8.840725   1.376042  -0.609796
C    6.223435   2.397911   0.050777
H    1.130774  -1.863024  -0.008712
H    1.078901   1.150692  -1.459360
H    1.280686   0.895088   1.881430
H    5.808168  -3.886297  -0.347502
H    9.345678   1.833034  -2.567439
H   10.305282   2.146105   0.632019
H    5.623617   3.850506  -1.291477
H    6.189382   3.193788   1.960780

