%chk=mol_7136.chk
# wB97XD/Def2SVP opt pop=full gfinput

C 6 H 15 N 1

1 2
C    3.333269  -1.674448   0.543088
C    6.106858  -0.959867   0.122227
C    7.001586  -1.992678  -2.425445
C    6.416546   1.935080   0.318702
C    9.146539   2.914657   0.096225
C    9.199413   5.799116   0.265960
N   10.742923   1.842955   2.083933
H    2.679669  -1.020566   2.393697
H    3.085677  -3.727390   0.478384
H    2.114263  -0.835542  -0.902684
H    7.216562  -1.870621   1.618550
H    6.036201  -1.052691  -3.995316
H    6.623075  -4.022320  -2.567098
H    9.037539  -1.733578  -2.669805
H    5.618194   2.564510   2.129022
H    5.266610   2.831811  -1.157495
H    9.934253   2.371342  -1.738397
H    8.447322   6.470952   2.074882
H    8.062441   6.638797  -1.246577
H   11.130638   6.520481   0.069164
H   10.064833   2.357396   3.812674
H   12.516393   2.586374   1.964276

