%chk=mol_2414.chk
# wB97XD/Def2SVP opt pop=full gfinput

C 6 H 10 O 1

1 2
C    1.855560   0.037795  -0.085453
C    4.733669  -0.026532  -0.003590
C    5.763797  -2.442358   1.235900
C    6.356510  -1.735033   3.978025
O    8.628981  -2.878733   4.791986
C    6.662834   1.063292   3.850279
C    5.777384   2.004546   1.677434
H    1.129886  -1.495661  -1.269915
H    1.181457   1.827101  -0.877494
H    1.027104  -0.172494   1.800626
H    5.488615   0.159058  -1.922834
H    7.485186  -3.060393   0.252940
H    4.433751  -4.026194   1.132702
H    4.824036  -2.256333   5.264909
H    9.995139  -2.131271   3.816888
H    7.429477   2.179818   5.380145
H    5.745920   3.992802   1.199730

