%chk=mol_5552.chk
# wB97XD/Def2SVP opt freq pop=full gfinput

C 4 H 10 N 2 O 1

1 2
N    1.00942969   0.06774998   0.02273999
C    2.46908927   0.02187999  -0.07400997
C    3.10270882   0.96761960   0.97108960
N    4.07404852  -0.11456996   1.30376947
C    3.04142904  -1.10226965   0.82493973
C    3.67641854  -2.30090904   0.12826996
O    4.52943850  -2.98817897   1.04268956
H    0.53438979  -0.67777973  -0.48599982
H    0.60063976   0.94075966  -0.31036988
H    2.88405895   0.09637997  -1.08502960
H    2.47066903   1.24647963   1.82351935
H    3.55984855   1.87628937   0.56722975
H    4.90837812  -0.07822997   0.71491975
H    2.38019919  -1.42350948   1.64342940
H    4.28248835  -1.99676931  -0.73106968
H    2.91088891  -2.99898887  -0.22200993
H    4.84585857  -2.31955910   1.68054938

