%chk=mol_5972.chk
# wB97XD/Def2SVP opt pop=full gfinput

C 5 H 5 N 1 O 1

1 2
O    2.041981  -0.316132  -0.197155
C    4.301678   0.079331  -0.041801
C    5.547518   2.575319  -0.294722
C    8.039840   2.154288  -0.062134
C    8.779422  -0.476268   0.387262
N    8.169759  -2.393471  -1.473004
C    6.258187  -1.882243   0.462605
H    4.551330   4.312261  -0.629997
H    9.440297   3.643732  -0.183625
H   10.173038  -0.899207   1.823850
H    7.658531  -1.622991  -3.167597
H    5.937652  -3.278183   1.917316

