%chk=mol_3923.chk
# wB97XD/Def2SVP opt freq pop=full gfinput

C 5 H 11 N 1 O 1

1 2
C    0.96632963  -0.00612000   0.05412998
C    2.48203897  -0.01277999   0.01603999
C    3.19797873   1.03914964   0.90171963
C    4.21408844  -0.04256998   1.31757951
N    5.36872816   0.00278000   0.40939984
C    3.19160867  -1.11881948   0.85124969
O    3.70318866  -2.24802899   0.11297996
H    0.56454980  -0.86784965  -0.48883981
H    0.57383978   0.90097970  -0.41691986
H    0.58659977  -0.04579998   1.08056962
H    2.83211899   0.01576000  -1.02547956
H    2.59068918   1.39326954   1.74459934
H    3.58542871   1.91704929   0.37519985
H    4.47854853  -0.06157998   2.37776923
H    5.17492819   0.18651992  -0.57196981
H    5.97495794  -0.81453967   0.46861982
H    2.57619905  -1.47717953   1.68689930
H    4.29342842  -1.85695922  -0.55122983

