%chk=mol_0409.chk
# wB97XD/Def2SVP opt freq pop=full gfinput

C 4 H 4 N 2

1 2
C    0.99146962  -0.02379999   0.01318999
C    2.51999903   0.00000000   0.00000000
C    3.02332902  -0.76842970  -1.14792955
N    3.40763879  -1.39939952  -2.04380918
C    3.00201893   1.36116946   0.00000000
N    3.38622880   2.44615912   0.00000000
H    0.59681976   0.50811982   0.88664967
H    0.61409980  -1.05235958   0.04787998
H    0.57183981   0.45223981  -0.88170964
H    2.86688900  -0.49435982   0.91616964

