%chk=mol_3435.chk
# wB97XD/Def2SVP opt pop=full gfinput

C 5 H 10 O 2

1 2
C    8.046832  -0.550780   4.582643
O    7.249292   2.003658   4.299486
C    6.909859   2.694126   1.719424
C    5.291441   5.072422   1.642021
C    9.415296   3.150268   0.339225
C   11.230415   5.031906   1.468431
O    9.933477   2.017169  -1.630645
H    8.231798  -0.947830   6.601002
H    9.883060  -0.851548   3.683568
H    6.640365  -1.841481   3.787559
H    5.889898   1.189205   0.721025
H    6.077794   6.561054   2.847420
H    3.396764   4.670326   2.371550
H    5.116055   5.810379  -0.282193
H   11.756799   4.444787   3.377432
H   10.376449   6.911182   1.505961
H   12.942262   5.117038   0.311446

