%chk=mol_1528.chk
# wB97XD/Def2SVP opt freq pop=full gfinput

C 6 H 13 N 1

1 2
C    1.32377946  -0.30144987  -0.15111995
C    2.80732894   0.00780000  -0.02804999
N    3.01167893   1.45449948  -0.02927999
C    4.43186855   1.78477943   0.06418997
C    4.63020849   3.28015876   0.06110997
C    4.16214848   4.02013826  -1.16319954
C    5.22346830   3.92256856   1.08122957
H    1.16325963  -1.38448954  -0.15080994
H    0.91161966   0.09963996  -1.08369958
H    0.75705969   0.12312995   0.68512970
H    3.33557892  -0.45206985  -0.87046969
H    3.19112873  -0.43428981   0.89815968
H    2.53012919   1.86888933   0.76828969
H    4.97683811   1.36060953  -0.78881967
H    4.85926819   1.34456944   0.97370964
H    4.58859825   3.57014871  -2.06616926
H    4.46549845   5.07208776  -1.14603949
H    3.07096887   3.99094844  -1.23993957
H    5.57452774   3.39288878   1.96156919
H    5.37249804   4.99858809   1.06445956

