%chk=mol_5337.chk
# wB97XD/Def2SVP opt pop=full gfinput

C 6 H 9 N 1

1 2
C    1.652414  -0.259837  -0.058884
C    4.407219   0.402587   0.382122
C    6.583881  -1.246010  -0.866250
N    8.214772   1.111140  -0.369423
C    5.805220   2.356640  -1.419411
C    5.749851   1.324849  -4.024776
C    6.277859  -1.120475  -3.649118
H    0.432407   1.278022   0.595377
H    1.146516  -1.963350   1.001479
H    1.213525  -0.604826  -2.049389
H    4.672745   0.768495   2.414465
H    7.197608  -3.007915   0.002665
H    8.541373   1.468072   1.493129
H    5.599070   4.384373  -1.133231
H    5.408510   2.314178  -5.769145
H    6.473843  -2.619349  -5.010552

