%chk=mol_0879.chk
# wB97XD/Def2SVP opt freq pop=full gfinput

C 4 H 6 O 2

1 2
O    0.99186963  -0.05954998   0.66527975
C    2.03022909   0.03066999   0.01112000
C    3.02168870   1.19951963   0.02562999
C    2.47163892   2.61942911  -0.13637996
O    3.30368876   3.09149885   0.95547962
C    3.51197886   1.71834934   1.37967944
H    2.30902910  -0.79458970  -0.66567975
H    3.85706854   1.00823963  -0.66160971
H    1.40922952   2.76077914   0.08666997
H    2.72086906   3.11090875  -1.08089960
H    4.56289816   1.51601946   1.60366940
H    2.89350891   1.47563934   2.24968910

