%chk=mol_5797.chk
# wB97XD/Def2SVP opt pop=full gfinput

C 4 H 11 N 1 O 2

1 2
N    1.551182  -0.264165  -0.194566
C    4.321615  -0.325751  -0.586439
C    5.004845  -2.865713  -1.837475
O    3.625666  -3.153594  -4.136516
C    5.043906   1.982172  -2.207011
C    7.867743   2.189550  -2.737495
O    9.247582   2.295413  -0.435166
H    1.078580   1.377025   0.701769
H    1.059853  -1.679154   1.023136
H    5.251795  -0.207530   1.260277
H    4.497813  -4.444409  -0.597135
H    7.022638  -3.022107  -2.249039
H    1.959627  -2.438521  -3.762841
H    4.448491   3.697495  -1.202017
H    4.024493   1.957076  -4.011832
H    8.275337   3.903607  -3.823445
H    8.559194   0.584870  -3.839848
H    8.944603   3.950680   0.306816

