%chk=mol_3519.chk
# wB97XD/Def2SVP opt pop=full gfinput

C 6 H 8 O 1

1 2
O    2.101527  -0.320460   0.043407
C    4.801605  -0.119128   0.022885
C    6.055155  -1.044678  -2.347078
C    5.880658   1.753779  -1.828537
C    8.172177   3.251179  -1.117660
C    9.319392   3.973546  -3.535451
C   10.271682   4.572268  -5.507833
H    1.346109   0.959490   1.124519
H    5.793503  -0.444785   1.788682
H    4.865724  -1.818824  -3.824409
H    7.874035  -1.968036  -2.171635
H    4.539311   2.848120  -2.929642
H    9.497914   2.146616   0.024755
H    7.619508   4.923190  -0.032862
H   11.111533   5.097857  -7.261027

