%chk=mol_0818.chk
# wB97XD/Def2SVP opt freq pop=full gfinput

C 5 H 10 O 1

1 2
C    1.24065959   0.11787996  -0.82043970
O    2.22956920   0.24026990   0.19906992
C    2.96116900   1.41469955   0.09696996
C    2.18498921   2.69902897   0.15984994
C    4.29998875   1.31598949   0.06136997
C    5.29728794   2.42422915  -0.02243999
H    0.85185969  -0.90454966  -0.79142970
H    1.67047942   0.29187989  -1.81313932
H    0.40515986   0.80136973  -0.63897979
H    1.35257947   2.60390902   0.86585963
H    1.77831936   2.94994903  -0.82454967
H    2.79061890   3.54135871   0.50555980
H    4.72931814   0.31539989   0.08236997
H    4.84467793   3.40224886  -0.20074992
H    5.98998785   2.23027897  -0.84779966
H    5.87743807   2.47419906   0.90387964

