%chk=mol_5995.chk
# wB97XD/Def2SVP opt freq pop=full gfinput

C 5 H 7 N 1 O 1

1 2
O    1.22199953   0.27505991   0.58368975
C    2.33251905  -0.00485000   0.16321994
C    2.87653899  -1.37099957  -0.08405996
C    4.09933853  -1.08931959  -0.94685960
N    4.53599787   0.29620990  -0.70387977
C    3.82036853   1.28768957  -1.50815952
C    3.37393880   0.99692965  -0.10862996
H    2.14471912  -1.99382925  -0.60510981
H    3.15314889  -1.81879938   0.87594968
H    4.90726805  -1.78241932  -0.68854976
H    3.87502837  -1.25521958  -2.00806928
H    4.34885836   2.21748924  -1.68595946
H    3.21258879   0.95071965  -2.33949924
H    3.60233855   1.70858932   0.67297977

