%chk=mol_5052.chk
# wB97XD/Def2SVP opt freq pop=full gfinput

C 5 H 11 N 1 O 1

1 2
C    1.13717949   0.05436998   0.14273995
N    2.58584905  -0.03418999  -0.07562997
C    2.84134889  -0.76283973  -1.32381952
C    3.14375877   1.33224952  -0.18884994
C    3.22150874   2.01777935   1.18900955
O    4.62546825   2.33509922   0.97406965
C    4.67967796   1.31852949  -0.06600998
H    0.91274965   0.56095976   1.08716965
H    0.70083976  -0.94777960   0.21791992
H    0.62747979   0.59303981  -0.66430974
H    2.42571926  -1.77497935  -1.26658952
H    3.91621852  -0.87937969  -1.49751937
H    2.40626907  -0.25989991  -2.19513917
H    2.75147891   1.96194923  -0.99541962
H    3.10062885   1.39086950   2.07881927
H    2.61426902   2.92155886   1.28901947
H    5.21588802   1.67400932  -0.95010966
H    5.15360832   0.40641984   0.31187990

