%chk=mol_6796.chk
# wB97XD/Def2SVP opt freq pop=full gfinput

C 5 H 10 N 2

1 2
C    1.05438960   0.06339998   0.02660999
C    2.57386899   0.00029000  -0.04612998
C    3.07460880  -1.21199954  -0.85369968
N    3.37399888  -0.70927972  -2.22862911
C    3.36879873   0.59107977  -2.09764910
C    3.61776876   1.49109948  -3.26672864
N    3.08516884   1.08845949  -0.85299969
H    0.73048973   0.97819960   0.53511977
H    0.65708977  -0.79324967   0.58086979
H    0.59856975   0.06381997  -0.97048962
H    3.00203872   0.01224000   0.96074963
H    2.33931923  -2.02199936  -0.89573961
H    4.00220871  -1.60831928  -0.42422986
H    3.59408855   2.53962922  -2.95950890
H    2.84754896   1.32033944  -4.02383852
H    4.59655809   1.26372957  -3.69745874
H    2.64409900   1.99710917  -0.78512973

