%chk=mol_4189.chk
# wB97XD/Def2SVP opt pop=full gfinput

C 5 H 9 N 1 O 1

1 2
C    1.769407   0.260537   0.318173
C    4.545264  -0.247970  -0.225992
O    4.862965  -2.830715  -1.046700
C    5.060535  -2.829959  -3.761972
C    6.004359  -0.276183  -4.494695
N    4.318232   1.895282  -4.659687
C    5.622672   1.387475  -2.274040
H    1.468015   2.219767   0.900133
H    1.094114  -0.994242   1.818332
H    0.585966  -0.118372  -1.339381
H    5.638603  -0.021637   1.515844
H    6.368604  -4.330251  -4.320235
H    3.197228  -3.229429  -4.567676
H    7.781193  -0.249803  -5.496552
H    5.162411   3.352015  -5.603718
H    7.113950   2.648262  -1.681611

