%chk=mol_4000.chk
# wB97XD/Def2SVP opt freq pop=full gfinput

C 4 H 6 N 2 O 1

1 2
C    1.03141963  -0.07201997   0.00165000
C    2.49410915   0.08214997  -0.01622999
C    3.36239886   1.14710951   0.01315000
N    4.65698862   0.69451970  -0.02694999
C    4.52883863  -0.60777980  -0.09164996
N    5.48263788  -1.53689933  -0.14133994
O    3.24426866  -1.05998969  -0.07707997
H    0.53421980   0.90257967   0.01897999
H    0.71556973  -0.63146979   0.88733965
H    0.69110972  -0.61179978  -0.88721967
H    3.13001895   2.20119905   0.06151998
H    5.22465801  -2.46870923   0.15442994
H    6.40280724  -1.23741949   0.15459993

