%chk=mol_2221.chk
# wB97XD/Def2SVP opt pop=full gfinput

C 6 H 8 O 1

1 2
C    3.213612  -0.963534   0.520922
O    1.487952  -3.070200   0.272158
C   -0.215126  -1.566205  -1.248901
C   -2.704047  -1.043242  -0.116218
C   -2.722056   1.248145   0.946280
C   -0.256247   2.616723   0.690317
C    1.399399   0.824884  -0.856556
H    4.989274  -1.340156  -0.470391
H    3.606807  -0.518031   2.502243
H   -0.307836  -2.266896  -3.193372
H   -4.262636  -2.360098  -0.139141
H   -4.337923   2.049276   1.912044
H    0.561475   3.022938   2.544497
H   -0.543447   4.402495  -0.314753
H    2.167119   1.650468  -2.591174

