%chk=mol_5140.chk
# wB97XD/Def2SVP opt freq pop=full gfinput

C 4 H 6 N 2 O 1

1 2
C    0.96669960  -0.04122999  -0.12906995
N    2.40160918   0.03760999   0.10128997
C    3.14020872  -1.21144962   0.04289998
C    3.11178875   1.24412954   0.13701995
O    4.33711815   1.29207957   0.22238992
C    2.37470913   2.50524902   0.06145998
N    1.75411940   3.48866868  -0.00544000
H    0.45712984   0.89085966   0.12127995
H    0.54860979  -0.84122968   0.48906982
H    0.79729974  -0.26883990  -1.18555951
H    2.68400908  -1.92838931   0.73171973
H    4.18978834  -1.07967949   0.31805989
H    3.08765888  -1.60053933  -0.97826964

