%chk=mol_2895.chk
# wB97XD/Def2SVP opt pop=full gfinput

C 5 H 6 O 2

1 2
C    1.891521  -0.101724   0.005669
C    4.762110   0.000000   0.000000
C    5.672996   2.572238   0.000000
C    6.423746   4.692322   0.000000
C    7.413887   7.231925   0.000000
O    9.966642   7.329379   0.000000
O    6.038903   9.078094   0.000000
H    1.242060  -2.065716   0.003080
H    1.105641   0.837111  -1.663885
H    1.112652   0.830365   1.682272
H    5.471834  -1.006714  -1.664584
H    5.478619  -1.009435   1.660011
H   10.696247   5.635126   0.000000

