%chk=mol_4142.chk
# wB97XD/Def2SVP opt freq pop=full gfinput

C 4 H 5 N 1 O 2

1 2
C    1.14694953  -0.01328999   0.18801993
C    2.43449903   0.00823000  -0.14453995
N    3.16498876   1.12870955  -0.31180987
C    4.45437860   0.82644969  -0.65131980
O    5.35685778   1.61407948  -0.86952966
C    4.50972843  -0.68033975  -0.69508976
O    3.17781878  -1.13376951  -0.35889986
H    0.62886977  -0.95974964   0.30372989
H    0.57972980   0.89519966   0.35222986
H    2.83179903   2.07449913  -0.20724991
H    4.76091814  -1.02621961  -1.70032942
H    5.21403790  -1.06042957   0.04837998

