%chk=mol_4995.chk
# wB97XD/Def2SVP opt pop=full gfinput

C 4 H 6 N 2 O 1

1 2
C    2.097180   0.008296  -0.247554
N    4.810676   0.015779  -0.478101
C    6.250439  -2.259338   0.127670
C    8.777040  -1.075897   0.935698
O   10.656525  -2.286871   1.525179
N    8.559042   1.536480   0.957184
C    6.289197   2.020590   0.186951
H    1.308975  -1.789042  -0.904687
H    1.271427   1.519567  -1.393824
H    1.527560   0.289997   1.721956
H    6.512922  -3.444593  -1.541582
H    5.434852  -3.305207   1.711166
H    5.438537   3.917194   0.054122

