%chk=mol_4142.chk
# wB97XD/Def2SVP opt pop=full gfinput

C 4 H 5 N 1 O 2

1 2
C    2.167421  -0.025114   0.355306
C    4.600538   0.015552  -0.273141
N    5.980964   2.132953  -0.589235
C    8.417559   1.561764  -1.230816
O   10.122998   3.050169  -1.643174
C    8.522155  -1.285656  -1.313530
O    6.005209  -2.142515  -0.678223
H    1.188392  -1.813665   0.573967
H    1.095531   1.691683   0.665618
H    5.351326   3.920237  -0.391646
H    8.996835  -1.939275  -3.213158
H    9.853107  -2.003922   0.091425

