%chk=mol_5252.chk
# wB97XD/Def2SVP opt freq pop=full gfinput

C 5 H 9 N 1 O 1

1 2
C    1.49660945   2.10465932   1.18095946
N    2.68114901   2.18982911   0.67910975
O    3.24490881   0.90640968   0.64803976
C    4.57737827   1.01258969   0.10230996
C    5.66863775   1.58208942   1.04413962
C    6.63342762   0.53695977   0.45443982
C    5.39457798  -0.30302987   0.09325996
H    0.87976968   3.00955892   1.28984952
H    1.05306959   1.15183961   1.51680934
H    4.56630802   1.49268937  -0.88635969
H    5.45703793   1.44222951   2.11043930
H    5.94716787   2.62467909   0.87003970
H    7.19189739   0.89566970  -0.41772982
H    7.32952738   0.07889997   1.16127956
H    5.44605827  -0.82122970  -0.86792964
H    5.09895802  -1.01880956   0.86888969

