%chk=mol_3106.chk
# wB97XD/Def2SVP opt pop=full gfinput

C 5 H 8 O 2

1 2
C    1.638544  -0.586193   0.236367
C    4.343989   0.079406  -0.474699
C    5.222674  -1.626809  -2.574790
O    6.910086  -3.196113  -2.292238
C    4.492125   2.827049  -1.238980
C    5.164716   4.701242   0.795064
O    4.021904   3.517895  -3.410275
H    0.969203   0.587535   1.804688
H    1.489218  -2.571426   0.805420
H    0.346255  -0.294589  -1.357107
H    5.597558  -0.226446   1.145533
H    4.223916  -1.445830  -4.398073
H    3.771421   4.610705   2.316256
H    5.169535   6.611982   0.007162
H    7.049434   4.280230   1.527598

