%chk=mol_4811.chk
# wB97XD/Def2SVP opt freq pop=full gfinput

C 5 H 11 N 1 O 1

1 2
C    3.04372883  -1.16448963  -0.43766984
C    2.41207910   0.09257996   0.14279996
O    1.98421919  -0.17045994   1.47519946
C    3.37895894   1.23932958   0.16592993
C    3.51222849   2.14171910  -1.03514969
C    2.86587906   2.65435910   0.22051992
N    3.56788850   3.65300846   1.02120960
H    3.36929893  -1.00444961  -1.47005951
H    2.33145905  -1.99595916  -0.41654983
H    3.91352844  -1.47688949   0.15097995
H    1.51873946   0.34646988  -0.43894985
H    2.76933885  -0.41236985   1.99385929
H    4.28434849   1.00205958   0.71212971
H    2.87048888   1.97359920  -1.89285934
H    4.49982834   2.50436902  -1.29510951
H    1.78669941   2.79421902   0.18412994
H    4.56739807   3.46355867   1.07219958
H    3.22860885   3.63818860   1.98316932

