%chk=mol_0554.chk
# wB97XD/Def2SVP opt pop=full gfinput

C 5 H 7 N 1

1 2
N    1.916787  -0.037379   0.029480
C    4.667624   0.000000   0.000000
C    5.578509   2.572238   0.000000
C    6.329260   4.692322   0.000000
C    7.216165   7.196871   0.000000
C    5.629097   9.162923   0.009052
H    1.311527  -1.853670  -0.153729
H    1.267061   0.912681  -1.512310
H    5.346810  -1.005429  -1.676622
H    5.373984  -1.018392   1.656383
H    9.242272   7.512115  -0.004668
H    3.593277   8.903502   0.020088
H    6.342885  11.084472   0.012075

