%chk=mol_4908.chk
# wB97XD/Def2SVP opt freq pop=full gfinput

C 4 H 8 N 2 O 1

1 2
C    1.14493954  -0.24972990  -0.02264999
C    2.65894890  -0.18679993  -0.08052997
O    3.05738878   1.17583954   0.12840995
C    4.38995838   1.41783953   0.09968996
N    5.28424788   0.51225978  -0.10775996
N    6.56245756   1.06422961  -0.07950997
C    7.45286703   0.15966994  -0.31156987
H    0.79106975  -1.27438962  -0.16709994
H    0.70291978   0.38894984  -0.79477972
H    0.77976972   0.11820996   0.94207966
H    3.00478888  -0.52814978  -1.06247962
H    3.08476877  -0.82027966   0.70539975
H    4.59350824   2.48634911   0.27522987
H    8.51948643   0.43130982  -0.32422987
H    7.20250702  -0.89760965  -0.50371981

