%chk=mol_5954.chk
# wB97XD/Def2SVP opt freq pop=full gfinput

C 5 H 7 N 1 O 1

1 2
O    0.98620963  -0.14968994  -0.01872999
C    2.19840908  -0.06028998   0.01221000
C    3.18908882  -1.20769954   0.05941998
C    4.49219847  -0.37950984  -0.02552999
C    4.32433844   0.72824973  -1.12915957
C    3.23306870   1.15907967  -0.08421997
N    4.31890821   0.79609972   0.95252961
H    3.07031894  -1.86013925  -0.80828971
H    3.11078882  -1.75420928   1.00188959
H    5.44305801  -0.91119969   0.02793999
H    3.96174836   0.39433986  -2.10505915
H    5.16775799   1.41451943  -1.26806951
H    2.85842896   2.17931914  -0.07212997
H    5.10586786   1.44709945   0.97229964

