%chk=mol_0541.chk
# wB97XD/Def2SVP opt pop=full gfinput

C 5 H 11 N 1

1 2
N    1.545683   0.359086  -0.412773
C    4.271065  -0.054008  -0.522868
C    5.702967   2.081023   0.805156
C    8.509814   1.666871   0.702090
C   10.079781   2.868056  -1.347942
C   10.275802   3.810689   1.326361
H    0.649537  -1.060949  -1.355935
H    1.103128   1.986367  -1.343501
H    4.869012  -0.193243  -2.500580
H    4.712750  -1.864744   0.379060
H    5.123841   2.177777   2.793393
H    5.208898   3.902114  -0.056975
H    9.047328  -0.193262   1.374417
H    9.161184   4.082243  -2.718503
H   11.655226   1.798131  -2.103057
H   11.978048   3.369665   2.378787
H    9.477468   5.645954   1.761943

