%chk=mol_6715.chk
# wB97XD/Def2SVP opt pop=full gfinput

C 4 H 2 O 2 S 1

1 2
O    2.020873   0.168318  -0.339206
S    4.682364  -0.077592   0.138158
O    6.009442  -1.225450   2.210167
C    5.830032  -1.689283  -2.538431
C    6.614873  -2.786571  -4.366836
C    5.792332   3.061640   0.117635
C    6.551265   5.202000   0.100439
H    7.305114  -3.767585  -5.982986
H    7.218508   7.101799   0.095280

