%chk=mol_6832.chk
# wB97XD/Def2SVP opt freq pop=full gfinput

C 6 H 9 N 1

1 2
C    1.21523964  -0.13761996   0.20415993
C    2.68682909  -0.07311997  -0.01648999
N    3.25512886  -0.52037978  -1.28179955
C    3.28037882   0.91864967  -0.99245960
C    4.57414818   1.59790945  -0.65501976
C    5.03378820   2.18046904  -1.89375925
C    5.41262817   2.66060901  -2.91474891
H    0.92276967   0.57113975   0.98545963
H    0.92529970  -1.14155960   0.53072977
H    0.64717978   0.10355996  -0.70087975
H    3.25000882  -0.33352989   0.87224966
H    2.53290892  -0.72898972  -1.97338927
H    2.58959913   1.54946935  -1.54347944
H    5.30958843   0.89572966  -0.24751991
H    4.39575863   2.37178922   0.09876996
H    5.75446796   3.08387899  -3.83095860

