%chk=mol_1954.chk
# wB97XD/Def2SVP opt pop=full gfinput

C 7 H 12

1 2
C    1.496833   0.625821   0.376244
C    4.293401   0.186648   0.287276
C    5.294653  -2.143082   0.328850
C    6.062393   2.373080   0.066462
C    4.982565   5.098046   0.227277
C    7.415191   5.821453   1.665113
C    7.566142   3.034655   2.503641
H    0.887283   1.766346  -1.238281
H    0.972925   1.603508   2.122144
H    0.435261  -1.150220   0.316491
H    4.112422  -3.816359   0.458221
H    7.322443  -2.450861   0.232814
H    7.303017   2.157538  -1.589505
H    3.277957   5.344486   1.376798
H    4.707856   6.058386  -1.581984
H    8.972156   6.410707   0.432993
H    7.188537   7.207132   3.178973
H    9.473254   2.248906   2.625661
H    6.567214   2.651305   4.279266

