%chk=mol_3696.chk
# wB97XD/Def2SVP opt pop=full gfinput

C 6 H 8 O 1

1 2
O    1.889008  -0.009619  -0.010998
C    4.573137   0.000000   0.000000
C    5.484023   2.572238   0.000000
C    6.234774   4.692322   0.000000
C    7.443291   7.115159   0.067161
C    7.122076   8.875382  -2.142647
C    5.883228   9.472271   0.339149
H    1.370429  -1.769143  -0.012793
H    5.234031  -1.020093  -1.673050
H    5.220217  -1.015369   1.681289
H    9.281976   7.132185   0.982752
H    5.922288   8.296899  -3.697759
H    8.746125   9.986465  -2.708412
H    6.664762  10.999057   1.460513
H    3.846745   9.294920   0.465874

