%chk=mol_4673.chk
# wB97XD/Def2SVP opt pop=full gfinput

C 5 H 11 N 1 O 1

1 2
C    1.588976  -1.076596  -0.115595
C    4.372959  -0.349637  -0.361618
N    5.549011  -1.839119  -2.384872
C    4.641394   2.502904  -0.864814
C    7.347047   3.334025  -0.961908
C    8.624313   3.939153  -3.431043
O    7.682530   5.890314  -1.800588
H    0.705378  -0.053838   1.450554
H    1.378234  -3.100530   0.260631
H    0.534868  -0.633172  -1.840631
H    5.340593  -0.815738   1.411229
H    4.649293  -1.491088  -4.053784
H    5.295372  -3.717809  -2.030303
H    3.704921   3.547091   0.661688
H    3.659795   3.014151  -2.619501
H    8.473495   2.702233   0.622060
H    7.617429   3.591179  -5.176886
H   10.652273   3.699857  -3.551948

