%chk=mol_5882.chk
# wB97XD/Def2SVP opt freq pop=full gfinput

C 6 H 11 N 1

1 2
C    0.99734968   0.00247000  -0.01046000
C    2.53145909  -0.00452000  -0.02108999
C    3.06672883  -1.22443962  -0.79356968
C    3.34124875  -0.66458976  -2.15203929
C    3.35580873   0.67268974  -2.13638902
C    3.08482885   1.22683954  -0.77465969
N    4.33513832   1.72397935  -0.21550992
H    0.62226975   0.87961966   0.52724981
H    0.61237979  -0.88940966   0.49517983
H    0.58074981   0.02301999  -1.02315962
H    2.86795902  -0.03360999   1.02280962
H    2.34366918  -2.04465938  -0.83286965
H    3.99748874  -1.59731948  -0.35285988
H    3.54715848  -1.27264953  -3.02239895
H    3.57338858   1.29661942  -2.99255896
H    2.35359907   2.04036927  -0.81941974
H    5.01375818   0.96392965  -0.19029993
H    4.18282843   1.99270928   0.75442970

