%chk=mol_2583.chk
# wB97XD/Def2SVP opt freq pop=full gfinput

C 6 H 8 O 1

1 2
C    0.68760973   0.84050971   0.27870992
C    1.78057933   0.79199970  -0.49329981
C    3.09401870   1.34725940  -0.15468994
C    3.83244848   2.13876915  -1.20163953
C    3.24539900   2.84546900  -0.00676000
C    4.11839867   3.38900876   1.06023955
O    5.23181820   2.93175888   1.29207957
H   -0.24427991   0.39026985  -0.04793998
H    0.70196974   1.32224953   1.25119960
H    1.70530939   0.27904990  -1.45109940
H    3.69779849   0.71053970   0.48758984
H    3.36616874   2.30508924  -2.16621923
H    4.91027784   2.01947927  -1.25245965
H    2.36611915   3.45466876  -0.19462994
H    3.70537853   4.22839832   1.64461935

