%chk=mol_0035.chk
# wB97XD/Def2SVP opt freq pop=full gfinput

C 3 H 8 O 1

1 2
C    0.99076962  -0.02851999  -0.00526000
C    2.50738907   0.02365999   0.01020000
C    3.02363873   1.45521951   0.01615999
O    4.44495869   1.45604944   0.01237000
H    0.64662975  -1.06761968  -0.00913000
H    0.58962977   0.46503982  -0.89687967
H    0.57170975   0.46462983   0.87800968
H    2.90771890  -0.50684983  -0.86127967
H    2.88797903  -0.50912982   0.88887966
H    2.67841887   2.00106931   0.90098965
H    2.68419909   1.99661934  -0.87357968
H    4.73963785   0.98891968   0.81296968

