%chk=mol_1105.chk
# wB97XD/Def2SVP opt pop=full gfinput

C 4 H 5 N 1 O 1

1 2
O    1.937763   0.072547  -0.317606
C    4.630113   0.068370   0.021203
C    6.076017  -1.348924  -1.963161
C    6.130442   1.499120  -1.933851
C    8.390894   2.777160  -1.159158
N   10.215576   3.805001  -0.513382
H    1.085175   0.947962   1.058719
H    5.350892  -0.036283   1.941051
H    5.011044  -2.271356  -3.450546
H    7.744230  -2.381508  -1.372659
H    5.063162   2.450011  -3.403491

