%chk=mol_0002.chk
# wB97XD/Def2SVP opt freq pop=full gfinput

C 2 H 4

1 2
C    0.98915964   0.00010000   0.00000000
C    2.32491922  -0.00017000  -0.00000000
H    0.42940983   0.93013966   0.00000000
H    0.42906985  -0.92984968   0.00000000
H    2.88499904   0.92979962  -0.00000000
H    2.88466883  -0.93019962   0.00000000

