%chk=mol_6408.chk
# wB97XD/Def2SVP opt pop=full gfinput

C 4 H 5 N 1 O 2

1 2
O    0.941027   5.216457   0.127462
N    3.559715   5.556740  -0.049983
C    4.653394   3.398843   0.225312
O    7.182641   3.062188   0.153181
C    8.652149   5.298528  -0.260064
C   11.339112   4.603297  -0.327149
C   13.534937   4.033167  -0.383973
H    0.297103   6.928624  -0.107336
H    3.676425   1.588844   0.548247
H    8.318367   6.642709   1.279949
H    8.113577   6.164759  -2.062712
H   15.480825   3.515892  -0.433730

