%chk=mol_5570.chk
# wB97XD/Def2SVP opt freq pop=full gfinput

C 6 H 11 N 1

1 2
C    1.02389967  -0.00106000   0.39861983
C    2.50701904  -0.01744999   0.02043999
C    2.89863896  -1.35289955  -0.61156976
C    2.66977906  -1.12353969  -2.07348919
C    3.68779874  -0.41014984  -2.91334891
N    2.54718900   0.32309988  -2.36878896
C    2.81948900   1.00157964  -1.08416963
H    0.74469972   0.97329962   0.81418973
H    0.81337965  -0.76139975   1.15836954
H    0.37627986  -0.19805993  -0.46276984
H    3.10089898   0.17854993   0.92007965
H    2.30721927  -2.19118905  -0.23010992
H    3.95665836  -1.57288933  -0.42757982
H    1.92943931  -1.76304936  -2.53281903
H    4.67338848  -0.21312991  -2.50947905
H    3.66614866  -0.57682979  -3.98415852
H    3.86441851   1.33137953  -1.02347958
H    2.19512916   1.89679933  -0.99554968

