%chk=mol_6233.chk
# wB97XD/Def2SVP opt freq pop=full gfinput

C 4 H 7 N 1 O 2

1 2
O    3.83721876  -1.06499958  -0.06508998
C    2.64150906  -0.30452991  -0.04322998
C    2.93517876   1.16267967   0.00888000
C    4.15531874   1.71478939   0.03510999
N    4.33533812   3.07003880   0.08211997
C    5.55035830   3.69679856   0.11077996
O    5.67547750   4.91463852   0.15247995
H    3.57373857  -1.99978924  -0.10155997
H    2.05735922  -0.59556979   0.83548969
H    2.06441927  -0.53353983  -0.94467968
H    2.05647922   1.80257928   0.02535999
H    5.05190802   1.09745955   0.01969999
H    3.53441858   3.69059849   0.09789997
H    6.41314745   3.01054883   0.09316996

