%chk=mol_7035.chk
# wB97XD/Def2SVP opt freq pop=full gfinput

C 6 H 13 N 1

1 2
C    1.16703951   0.15870994   0.17169994
C    2.66072893  -0.00944000  -0.10503996
C    2.87694883  -0.70765972  -1.44731951
C    3.35289884   1.32858944  -0.09941996
N    3.78065848   1.92916930   1.16508949
C    4.81523800   1.43434942   0.26349989
C    5.69453764   2.41182923  -0.43704984
H    1.00231969   0.63563973   1.14404964
H    0.65973979  -0.81162971   0.18163994
H    0.68862975   0.78609967  -0.58892983
H    3.08141899  -0.65094972   0.68005973
H    2.46930909  -0.11589996  -2.27498913
H    2.39353919  -1.69017935  -1.45974946
H    3.94525862  -0.85417968  -1.64176941
H    2.95250893   2.02091908  -0.83349967
H    3.64092875   1.28697956   1.94702923
H    5.35089779   0.54598975   0.57680976
H    5.15915775   3.32393885  -0.72085977
H    6.10331774   1.96154928  -1.34698939
H    6.53252745   2.69542909   0.20744991

