%chk=mol_5021.chk
# wB97XD/Def2SVP opt pop=full gfinput

C 5 H 7 N 1 O 1

1 2
C    5.527430  -2.327047   0.903667
N    4.523475   0.068729   0.050890
C    5.923649   2.204441   0.015118
C    4.986231   4.605376  -0.330589
O    6.889356   6.330053  -0.270344
C    9.061180   5.013727   0.103633
C    8.566866   2.466282   0.287919
H    4.099421  -3.802923   0.658513
H    6.025638  -2.245788   2.909951
H    7.193054  -2.879943  -0.192053
H    2.606102   0.194698   0.113289
H    3.117084   5.368920  -0.628580
H   10.766733   6.134278   0.188803
H    9.958724   1.003275   0.577217

