%chk=mol_6718.chk
# wB97XD/Def2SVP opt freq pop=full gfinput

C 3 H 6 O 3 S 1

1 2
O    1.02904963   0.35358986  -0.03091999
S    2.56655884  -0.11369995  -0.20313993
O    2.84470892  -1.08265960   0.83272970
O    2.70984912  -0.41946983  -1.60913944
C    3.35108876   1.46159947   0.18561992
C    4.84516811   1.30440950   0.11993995
C    5.65108776   2.05751920  -0.64047974
H    0.55202979   0.11209996  -0.85452968
H    3.04615879   1.73759937   1.19905961
H    2.97795868   2.20066929  -0.52932978
H    5.28448772   0.52727979   0.74517971
H    5.26934814   2.84644914  -1.28173947
H    6.72528791   1.89288938  -0.64102978

