%chk=mol_2096.chk
# wB97XD/Def2SVP opt freq pop=full gfinput

C 5 H 12 N 2

1 2
N    0.76612967  -0.08287997   0.05604998
C    2.21649933  -0.22337992   0.26225990
C    2.94071889   1.13903964   0.09139997
N    2.25364923   2.17403913   0.89184964
C    4.43306828   1.06832957   0.46628982
C    5.21221828   0.10457996  -0.38837984
C    5.87968779  -0.95337969   0.08933996
H    0.33855990  -1.00752962   0.09439997
H    0.60174978   0.26146990  -0.89028966
H    2.60653901  -0.95633966  -0.45146984
H    2.38298917  -0.61418974   1.27230942
H    2.85460901   1.44308937  -0.96012968
H    2.37362909   1.95263922   1.87937927
H    1.24993956   2.01928926   0.73894972
H    4.53841829   0.80806965   1.52968943
H    4.88444853   2.06052923   0.34321988
H    5.23330784   0.30450991  -1.45783949
H    5.90004778  -1.18626952   1.14968956
H    6.43215752  -1.60838938  -0.57728976

