%chk=mol_6283.chk
# wB97XD/Def2SVP opt pop=full gfinput

C 4 H 6 N 2 O 1

1 2
O    2.123051  -0.050607  -1.091751
C    4.288941   0.211971  -0.321783
N    5.560500   2.435215   0.154069
C    8.136745   2.607973   1.067695
C    8.615469   5.416484   1.270803
C    6.121031   6.411009   0.397957
N    4.450758   4.740775  -0.212840
H    5.486064  -1.444979   0.083129
H    9.403920   1.677793  -0.276902
H    8.283860   1.639545   2.889580
H   10.122753   6.072163   0.021429
H    8.993585   6.034368   3.204220
H    5.777290   8.457563   0.299503

