%chk=mol_3553.chk
# wB97XD/Def2SVP opt freq pop=full gfinput

C 6 H 8 O 1

1 2
O    0.98643959  -0.08335996  -0.24475990
C    2.37307906  -0.00529000   0.00834000
C    3.02503872  -1.22758961  -0.54924977
C    4.00571823  -0.92358965  -1.41083944
C    4.14729834   0.55913979  -1.57453942
C    3.01457882   1.13254964  -0.75254971
C    2.62854910   2.41576910  -0.77980971
H    0.61766976   0.78839970  -0.03241999
H    2.55779910   0.07204998   1.08466959
H    2.72572899  -2.22992897  -0.27808991
H    4.61674833  -1.64526939  -1.93572927
H    5.11640787   0.88600969  -1.18242955
H    4.05798864   0.84033966  -2.62718916
H    3.14930892   3.14125872  -1.40057945
H    1.78931928   2.77693892  -0.19586994

