%chk=mol_5916.chk
# wB97XD/Def2SVP opt freq pop=full gfinput

C 4 H 8 N 2 O 1

1 2
N    4.99469805  -0.50377983  -2.75499892
N    5.17434835   0.57448977  -1.95345926
C    4.11700821   1.30973959  -1.85229933
O    4.05867863   2.45036912  -1.12003958
C    5.25217772   2.86319900  -0.42672986
C    6.14005804   3.83262849  -1.15565956
C    5.28772831   4.30911827  -0.01663999
H    5.65413809  -1.23548961  -2.47307897
H    5.29431820  -0.27500990  -3.70811868
H    3.14599872   1.11536956  -2.33691907
H    5.72147751   2.15025926   0.24623990
H    5.85908794   4.12074852  -2.16177917
H    7.20839691   3.74619842  -0.99856961
H    5.77862740   4.55790854   0.91656965
H    4.42737865   4.92593813  -0.24769992

