%chk=mol_2360.chk
# wB97XD/Def2SVP opt freq pop=full gfinput

C 6 H 12 O 1

1 2
C    0.99455965   0.00744000  -0.00783000
C    2.51359916   0.00043000   0.03953999
C    3.08543873   1.12636948   0.89750969
C    4.49967861   0.65441972   1.18253958
C    4.35096836  -0.84646970   1.41421950
O    5.49616814  -1.54659939   0.95776969
C    3.08986878  -1.27826953   0.65843976
H    0.62365973  -0.81290972  -0.62969977
H    0.62430972   0.94863963  -0.42833987
H    0.56373978  -0.10587996   0.99210960
H    2.90207911   0.10226996  -0.98341966
H    2.52423906   1.23554945   1.83394933
H    3.07236886   2.08999920   0.37672985
H    5.15896797   0.86148965   0.33043987
H    4.92971802   1.15825951   2.05496931
H    4.23319817  -1.05827963   2.48295903
H    5.58857775  -1.38170946   0.00415000
H    3.29274893  -2.03174925  -0.11117996
H    2.37960911  -1.72053933   1.36702943

