%chk=mol_1119.chk
# wB97XD/Def2SVP opt pop=full gfinput

C 4 H 7 N 1 O 1

1 2
O    1.848379  -0.098511   1.123763
C    3.863470   0.074720  -0.026513
C    5.740194   2.292937   0.052232
C    4.697160   4.994168  -0.240827
N    6.582786   5.851367   1.647936
C    6.649002   3.236553   2.651928
H    4.447565  -1.492921  -1.270123
H    7.334046   1.940654  -1.236939
H    2.737401   5.255385   0.379381
H    4.914062   5.837553  -2.115851
H    8.251754   6.418870   0.865495
H    8.523043   2.585712   3.232944
H    5.325305   2.922424   4.214694

