%chk=mol_2446.chk
# wB97XD/Def2SVP opt freq pop=full gfinput

C 5 H 10 O 2

1 2
C    1.04849958   0.06733997  -0.11781996
C    2.53573918   0.02047999  -0.04612998
C    3.38555884  -0.68938977  -1.07295954
O    2.72860909  -1.27227962  -2.20892906
C    3.43596888   0.82243967  -0.96267968
C    2.91225886   1.70527935  -2.05065918
O    4.59680843   1.38366950  -0.31931987
H    0.66742975   0.81629968   0.58431977
H    0.63173974  -0.90347964   0.16971993
H    0.66164970   0.31787989  -1.10829961
H    2.84864879  -0.08521997   0.98884964
H    4.24523830  -1.23865962  -0.69991976
H    1.88444936  -0.84764963  -2.42916918
H    2.04339933   1.29354942  -2.56959891
H    3.69242859   1.87364936  -2.80044913
H    2.62508893   2.67796898  -1.63835943
H    5.09613800   0.72386974   0.19018993

