%chk=mol_4170.chk
# wB97XD/Def2SVP opt pop=full gfinput

C 4 H 6 N 2 O 1

1 2
C    2.478149   0.246212   0.009732
C    5.259391   0.125213  -0.000888
N    6.920423   1.968679  -0.011679
C    9.163924   0.671023  -0.016913
C   11.630244   1.966487  -0.029990
N    8.942014  -1.849853  -0.009997
O    6.328655  -2.221883   0.001058
H    1.636389  -1.642361  -0.008126
H    1.800682   1.270501  -1.653227
H    1.812115   1.234218   1.699053
H   13.199737   0.619320  -0.016271
H   11.810807   3.180522   1.634179
H   11.810543   3.146621  -1.718385

