%chk=mol_5263.chk
# wB97XD/Def2SVP opt pop=full gfinput

C 4 H 6 N 2 O 1

1 2
C    1.587445  -0.023433   0.153370
N    4.323769  -0.007748   0.343155
O    5.355730  -2.290254  -0.541010
C    5.727306   2.113999  -0.223838
N    5.067395   4.448226  -0.323540
C    8.399927   1.889027  -0.735198
C   10.623076   1.704835  -1.157344
H    0.760086   1.463045   1.329290
H    0.826302  -1.830691   0.815681
H    0.988440   0.260801  -1.806729
H    6.796834  -2.565530   0.579522
H    3.194091   4.616695   0.087948
H   12.593778   1.576750  -1.543793

