%chk=mol_6305.chk
# wB97XD/Def2SVP opt freq pop=full gfinput

C 4 H 8 N 2 O 1

1 2
O    1.80619931  -0.75844973   2.97267866
C    2.43449903  -0.13024995   2.13002920
N    3.79477859  -0.20788993   1.99218929
N    4.44422817   0.53080976   1.00522959
C    5.69694805   1.15046954   1.52109945
C    6.35789728   0.76264971   0.18510993
C    5.28695822  -0.34256989   0.14063995
H    1.95382917   0.55137974   1.40852952
H    4.29565859  -0.82054973   2.62729907
H    6.14547777   0.65808976   2.39383912
H    5.63026810   2.22494912   1.71432936
H    6.25581789   1.51867938  -0.60215980
H    7.39669752   0.42881986   0.23715991
H    4.86776829  -0.54751980  -0.84855968
H    5.60943794  -1.28853953   0.59504980

