%chk=mol_5873.chk
# wB97XD/Def2SVP opt freq pop=full gfinput

C 4 H 7 N 1 O 2

1 2
N    1.76640928  -1.70210934   0.21092992
C    2.25437927  -0.64439970   0.91661966
O    1.86376929  -0.39157987   2.04987931
C    3.33561873   0.14664994   0.21819992
C    4.71071815  -0.36997986   0.60847974
C    5.03634834  -1.70521939  -0.01698999
O    4.31171846  -2.29089904  -0.81789970
H    2.34324908  -2.11552906  -0.52123982
H    1.12945962  -2.32017922   0.69493973
H    3.22540879   1.19409955   0.52149981
H    3.18220878   0.11082996  -0.86664969
H    4.79792786  -0.47960982   1.69413936
H    5.47921801   0.33456987   0.27306989
H    6.00377798  -2.14168906   0.28695989

