%chk=mol_6032.chk
# wB97XD/Def2SVP opt freq pop=full gfinput

C 4 H 6 N 2 O 1

1 2
O    0.89546967   0.00146000   0.02887999
C    2.34082913  -0.01964999   0.01466000
C    3.05256891   1.00646961   0.92475963
N    4.05688858  -0.02665999   1.27203953
C    3.05458879  -1.07537961   0.90498966
C    3.63528848  -2.19224930   0.18616992
N    4.09873867  -3.06906891  -0.41824985
H    0.62083977  -0.69447970  -0.59427983
H    2.70976901   0.02295999  -1.01973963
H    2.45905900   1.34452951   1.78218937
H    3.46183872   1.88358927   0.41525987
H    4.87949800  -0.01210000   0.66530973
H    2.45032907  -1.39409947   1.76490927

