%chk=mol_6366.chk
# wB97XD/Def2SVP opt pop=full gfinput

C 5 H 3 N 1 O 1

1 2
O    1.734523   0.121868   0.000000
N    4.372769  -0.103727   0.000000
C    5.349777   2.121614   0.000000
C    8.055146   2.068249   0.000000
C   10.323536   2.053811  -0.000000
C   13.218616   2.050693  -0.000000
C   15.486022   2.054718   0.000000
H    1.188751  -1.640263   0.000000
H    4.315303   3.926227  -0.000000
H   17.498505   2.057401   0.000000

