%chk=mol_1151.chk
# wB97XD/Def2SVP opt freq pop=full gfinput

C 4 H 5 N 1 S 1

1 2
C    0.92148966   0.07475998  -0.00465000
C    2.40795922   0.00035000  -0.00588000
N    3.20639873   1.04703963  -0.00905000
C    4.52202845   0.62697977  -0.00963000
C    4.71144819  -0.73734975  -0.00690000
S    3.19237876  -1.53071940  -0.00366000
H    0.59138978   1.11863959   0.00518000
H    0.50766981  -0.41759986   0.88029969
H    0.50798982  -0.40081984  -0.89928967
H    5.31284761   1.36678946  -0.01213999
H    5.63995790  -1.28846955  -0.00674000

