%chk=mol_1095.chk
# wB97XD/Def2SVP opt pop=full gfinput

C 4 H 9 N 1 O 1

1 2
N    1.875912  -0.164709  -1.150314
C    4.559380   0.068314  -0.462964
C    6.154781  -1.609536  -2.246393
O    5.402538  -1.248013  -4.819860
C    5.281274   2.804883  -0.697970
C    6.143065   4.236558   1.204852
H    0.850131   0.932183   0.060830
H    1.305461  -1.975501  -0.813848
H    4.831689  -0.579730   1.486062
H    5.858302  -3.608508  -1.797186
H    8.176429  -1.199504  -2.087750
H    3.627821  -0.727167  -4.708801
H    5.096327   3.649874  -2.566248
H    6.377089   3.496352   3.103006
H    6.637663   6.203064   0.886735

