%chk=mol_5571.chk
# wB97XD/Def2SVP opt freq pop=full gfinput

C 4 H 6 N 2 O 1

1 2
N    0.96578962   0.03204999  -0.08116997
C    2.31294918  -0.00284000  -0.04176998
C    3.16464877   1.07498956  -0.06654997
O    4.45916843   0.65511978   0.00748000
C    4.42737865  -0.70606977   0.07562997
C    3.12886882  -1.15288949   0.04115998
N    2.71655893  -2.43716908   0.07240997
H    0.47161981   0.90356970   0.08548997
H    0.44443983  -0.78021967   0.23288991
H    3.02622867   2.14450908  -0.12457995
H    5.39063787  -1.18988955   0.13728996
H    1.77961934  -2.65885901  -0.24804991
H    3.37674856  -3.19015884  -0.09370996

