%chk=mol_6660.chk
# wB97XD/Def2SVP opt freq pop=full gfinput

C 4 H 2 N 2 S 1

1 2
N    0.90122968   0.00861000  -0.00717000
C    2.06106925   0.03223999  -0.00400000
C    3.48625875   0.06326998  -0.00011000
C    4.23622847   1.22038960   0.00176000
S    5.89526796   0.79140967   0.00635000
N    5.64648771  -0.85079968   0.00593000
C    4.33486843  -1.07765961   0.00238000
H    3.91499853   2.25285912   0.00072000
H    4.01514864  -2.11299920   0.00167000

