%chk=mol_4824.chk
# wB97XD/Def2SVP opt pop=full gfinput

C 5 H 9 N 1 O 1

1 2
C    4.346143   4.043409   1.081301
C    6.173527   4.713336   2.697509
O    8.635198   5.314042   2.214268
C    9.423289   5.324662  -0.371520
C   12.150448   6.087866  -0.456142
C   14.200952   4.125234  -0.665958
N   13.592252   5.767728  -2.800612
H    2.466168   3.620205   1.784034
H    4.637483   3.885315  -0.937550
H    5.830372   4.846241   4.714904
H    8.310373   6.710984  -1.434283
H    9.160221   3.442665  -1.198030
H   12.519303   7.799145   0.606130
H   13.674266   2.157406  -0.875491
H   15.984381   4.463684   0.280398
H   14.909108   7.169961  -2.982687

