%chk=mol_5450.chk
# wB97XD/Def2SVP opt freq pop=full gfinput

C 4 H 6 N 2 O 1

1 2
C    1.79383934  -0.64671981   0.77824974
O    3.06809878  -0.30610991   0.24312991
N    3.27331877   1.06935954   0.42396986
C    4.44368839   1.37398946  -0.03445999
C    4.94236803   2.78517890   0.00862000
C    6.19277811   2.84202886   0.76452971
N    7.19548750   2.88866878   1.34595954
H    1.63620937  -1.71942937   0.63929975
H    1.00434959  -0.10232996   0.25111991
H    1.75957930  -0.42024982   1.84834933
H    5.10545826   0.61457980  -0.49010983
H    4.18503857   3.43606877   0.45691985
H    5.10903788   3.11205864  -1.02273965

