%chk=mol_6474.chk
# wB97XD/Def2SVP opt pop=full gfinput

C 4 H 5 N 1 O 1 S 1

1 2
C    1.756217   0.114461  -0.011338
C    4.566958   0.036169  -0.002268
N    6.027754   2.045137   0.010771
C    8.517790   1.322487   0.015874
O   10.402470   3.021011   0.028913
C    8.948382  -1.245537   0.006765
S    6.116004  -2.821758  -0.009052
H    1.088085   2.071820   0.003666
H    0.987835  -0.833105   1.659350
H    1.000270  -0.803247  -1.704268
H   12.030034   2.179289   0.030689
H   10.717695  -2.259092   0.008371

