%chk=mol_1611.chk
# wB97XD/Def2SVP opt freq pop=full gfinput

C 4 H 7 N 3

1 2
C    0.55798978  -0.37972984   0.15311994
C    1.99972928   0.06193998   0.09269997
N    2.94769907  -0.81537968   0.14788994
N    2.26773906   1.39233947  -0.04743998
C    3.61355853   1.87069929  -0.33412987
C    3.66345859   3.34320879  -0.40631986
N    3.67457843   4.50343847  -0.47569981
H   -0.10125996   0.46913984   0.35320985
H    0.43037984  -1.12299955   0.94517964
H    0.28331992  -0.82896972  -0.80544972
H    2.55640912  -1.75905943   0.24819991
H    1.50949943   2.01038933  -0.31609988
H    3.95266843   1.45418942  -1.28951943
H    4.30403852   1.52809942   0.44502982

