%chk=mol_3408.chk
# wB97XD/Def2SVP opt pop=full gfinput

C 6 H 14 O 1

1 2
C    3.344097  -1.750718  -0.764092
O    5.777195  -0.642488  -0.500721
C    5.634974   2.050315  -0.350469
C    8.316023   3.078194  -0.080861
C    8.437136   5.958306   0.264165
C   11.164899   6.769755   0.782649
C    7.415966   7.387204  -2.031323
H    3.573586  -3.798501  -0.890288
H    2.425766  -1.080375  -2.490395
H    2.171201  -1.315835   0.882616
H    4.491350   2.588112   1.291004
H    4.739074   2.770905  -2.071197
H    9.433097   2.501298  -1.731197
H    9.213114   2.146370   1.541846
H    7.295703   6.481591   1.914349
H   12.405655   6.293960  -0.805477
H   11.902554   5.834000   2.475069
H   11.280172   8.813550   1.094586
H    8.409338   6.834837  -3.761462
H    7.646588   9.429752  -1.787832
H    5.397984   7.029385  -2.303595

