%chk=mol_6632.chk
# wB97XD/Def2SVP opt freq pop=full gfinput

C 3 H 8 O 3 S 1

1 2
C    1.45232940  -0.39666986   1.04472959
S    3.21127892  -0.26536992   0.83916968
O    3.81325865  -0.30132988   2.15820932
O    3.60720873  -1.21194959  -0.18506993
C    3.41277885   1.37232947   0.18501993
C    4.87498808   1.67168939  -0.05963998
O    4.99109840   2.99097872  -0.58590978
H    0.97277963  -0.26848990   0.07238998
H    1.12016964   0.37177986   1.74534929
H    1.22895956  -1.38852942   1.44377947
H    2.98483896   2.08247924   0.89951968
H    2.84063888   1.44280946  -0.74539971
H    5.30895805   0.97175962  -0.78093970
H    5.45273781   1.61706948   0.86866969
H    5.93988800   3.15449882  -0.73428971

