%chk=mol_0265.chk
# wB97XD/Def2SVP opt pop=full gfinput

C 5 H 11 N 1

1 2
C    1.914822   0.023603  -0.120149
C    4.731572   0.053801  -0.059507
C    6.318224  -1.388193  -1.969869
C    5.173333  -2.919495  -4.036512
N    6.098335   1.360319  -2.069704
C    8.366914   2.664212  -1.196896
H    1.166717   1.462761   1.163240
H    1.210143  -1.816877   0.505540
H    1.151542   0.406953  -2.004017
H    5.441939   0.167184   1.861342
H    8.081678  -2.205688  -1.313983
H    3.532219  -2.003847  -4.902308
H    4.576652  -4.760012  -3.307418
H    6.568442  -3.245435  -5.528564
H    7.901701   4.630075  -0.751582
H    9.784680   2.681975  -2.704028
H    9.240062   1.825230   0.485225

