%chk=mol_5874.chk
# wB97XD/Def2SVP opt freq pop=full gfinput

C 4 H 8 N 2 O 1

1 2
N    2.51436901  -0.98141962   0.94934964
C    2.19683909  -0.11047996  -0.05554998
O    1.18131959  -0.26541990  -0.72869974
C    3.13285899   1.08889961  -0.21242991
N    4.49512863   0.72784972   0.23702991
C    5.45774794   0.60310978  -0.85623974
C    5.45466805   1.81323934   0.03783999
H    3.45662856  -0.94264966   1.32284951
H    1.97378922  -1.83103931   1.03393960
H    2.73592901   1.89310920   0.41793984
H    3.09284878   1.41412950  -1.25904942
H    5.11695814   0.71330976  -1.87935936
H    6.24388742  -0.13007995  -0.71506971
H    6.23362780   1.89536929   0.78573966
H    5.09790802   2.75401902  -0.36267987

