%chk=mol_6067.chk
# wB97XD/Def2SVP opt pop=full gfinput

C 4 H 7 N 1 O 2

1 2
O    1.765344   0.011754   0.392024
C    4.464705   0.042972   0.295119
C    5.397190   2.313970  -1.204870
O    7.965347   1.880750  -1.880788
N    8.139599   0.010016  -3.770646
C    6.898767  -2.032608  -3.212610
C    5.420680  -2.432512  -0.823032
H    1.216606   1.545475   1.247729
H    5.143324   0.169187   2.249530
H    5.291366   4.027535  -0.050191
H    4.249276   2.664533  -2.896157
H    7.010053  -3.640916  -4.530694
H    3.864698  -3.733438  -1.240303
H    6.683432  -3.395498   0.506522

