%chk=mol_5574.chk
# wB97XD/Def2SVP opt freq pop=full gfinput

C 4 H 9 N 1 O 2

1 2
N    0.99762964   0.02948999  -0.09253997
C    2.45419908   0.02028999   0.03931998
C    3.01840878   1.09352958   0.95662963
O    4.33875847   0.64113975   1.29239953
C    4.30208874  -0.79411972   1.33721960
C    2.99796891  -1.25221944   0.68635976
O    3.19723868  -2.28641915  -0.27743989
H    0.70845973  -0.80634969  -0.60361975
H    0.70409971   0.82888973  -0.65252978
H    2.88988876   0.12633996  -0.96291965
H    2.44494915   1.19123960   1.88511932
H    3.07628870   2.07343936   0.47324982
H    5.19475794  -1.18754947   0.83949965
H    4.33668804  -1.09943962   2.38942909
H    2.31842923  -1.64171946   1.45384943
H    3.84896851  -1.96737933  -0.92747962

