%chk=mol_2014.chk
# wB97XD/Def2SVP opt freq pop=full gfinput

C 4 H 3 N 3

1 2
N    0.97476959   0.17432992  -0.00093000
C    2.13589907   0.12725995  -0.00046000
C    3.55737877  -0.00502000   0.00066000
N    4.28636837   1.06400967  -0.00711000
N    5.65352774   0.63108975  -0.00382000
C    5.66495800  -0.66357976   0.00567000
C    4.30731821  -1.27275956   0.01003000
H    6.57483768  -1.27830958   0.01025000
H    4.13663864  -1.86503923  -0.88932967
H    4.13651848  -1.85179937   0.91794968

