%chk=mol_2574.chk
# wB97XD/Def2SVP opt freq pop=full gfinput

C 5 H 8 O 2

1 2
C    1.00310957   0.13882995   0.13634995
C    2.47774911  -0.13492994  -0.07771997
O    3.30178881   0.88806963   0.55103981
C    3.98507857  -0.02777999   1.28615952
O    4.92157793   0.15091994   2.02988911
C    3.12432885  -1.21310949   0.81042975
C    3.86339855  -2.32877898   0.10361996
H    0.40033984  -0.69142973  -0.24582991
H    0.69799972   1.04681957  -0.39379984
H    0.76529974   0.27025992   1.19724953
H    2.72697902  -0.21663992  -1.14332962
H    2.47669888  -1.59092939   1.61066937
H    4.53283834  -1.94520938  -0.67323977
H    3.15547895  -3.01696897  -0.36909986
H    4.46524858  -2.90313888   0.81500971

