%chk=mol_4050.chk
# wB97XD/Def2SVP opt pop=full gfinput

C 6 H 9 N 1

1 2
C   -3.456082   1.845450   0.737220
C   -2.519931  -0.682777  -0.183379
C   -0.454366  -2.265612   0.829061
N    1.334903  -0.865173  -0.717680
C    3.724008  -0.137534   0.200878
C    1.486666   1.695651   0.307629
C   -1.133250   1.710353  -0.931389
H   -5.180023   2.579741  -0.092332
H   -3.234946   2.290462   2.723549
H   -3.602952  -1.639016  -1.638222
H   -0.205186  -2.101697   2.878733
H   -0.592221  -4.244230   0.256020
H    4.402268  -0.976743   1.938273
H    5.173220   0.239069  -1.193891
H    1.326644   2.243426   2.299154
H   -1.311848   2.399895  -2.858513

