%chk=mol_1157.chk
# wB97XD/Def2SVP opt freq pop=full gfinput

C 4 H 5 N 1 S 1

1 2
N    1.00251961   0.01624999  -0.00988000
C    2.34590912   0.03691998  -0.00242000
C    3.09141874   1.19048953   0.00113000
S    4.77357817   0.86214966   0.01085000
C    4.49551821  -0.82757968   0.00980000
C    3.15037870  -1.13122952   0.00232000
H    0.43870986   0.86023968  -0.00030000
H    0.46658984  -0.84530967   0.00048000
H    2.74358892   2.21333909  -0.00153000
H    5.32982826  -1.51508939   0.01457999
H    2.77542901  -2.14615917   0.00027000

