%chk=mol_6041.chk
# wB97XD/Def2SVP opt freq pop=full gfinput

C 4 H 9 N 1 O 2

1 2
O    1.00971961   0.03626999  -0.04723999
C    2.42917919   0.01792999  -0.00382000
C    3.00041890   1.10460961   0.89426970
N    4.36267853   0.63752973   1.20073950
C    4.22630835  -0.82007968   1.38940942
C    2.96225905  -1.26188958   0.64115971
O    3.22127891  -2.24668908  -0.35676989
H    0.73629969  -0.79236966  -0.48264980
H    2.79942894   0.12816995  -1.03115964
H    2.41466904   1.21490955   1.81456935
H    3.01249886   2.07950926   0.39740986
H    4.95705843   0.81213969   0.38932985
H    5.12756824  -1.33989942   1.04782963
H    4.11133862  -1.02128971   2.46077919
H    2.23093915  -1.68632936   1.33752954
H    3.96721840  -1.93807936  -0.90020967

