%chk=mol_0657.chk
# wB97XD/Def2SVP opt pop=full gfinput

C 5 H 10 O 1

1 2
C    5.903731  -2.185676  -0.816966
C    4.607946   0.127670   0.290564
C    6.345228   2.363688   0.340737
C    6.610262   4.034830  -1.949007
C    5.258560   4.992619   0.358424
O    6.588832   6.825161   1.843522
H    4.615392  -3.802507  -0.816305
H    7.580353  -2.692028   0.282722
H    6.505023  -1.834981  -2.764159
H    3.996166  -0.290961   2.225946
H    2.898613   0.541029  -0.808463
H    8.009699   2.011311   1.480430
H    5.476521   3.623644  -3.605635
H    8.460890   4.791306  -2.384097
H    3.221945   5.199884   0.234156
H    8.399228   6.515454   1.884170

