%chk=mol_1209.chk
# wB97XD/Def2SVP opt freq pop=full gfinput

C 5 H 10 N 2

1 2
C    3.34512877  -1.54572940  -0.94365960
C    2.91748881  -0.59011978   0.13674995
C    2.15687919  -0.99178958   1.16986954
C    3.34959888   0.84694970  -0.02427999
C    4.84955788   0.94893968   0.10670996
N    5.57820797   1.30432951  -0.90501964
N    6.89834738   1.34500957  -0.61464977
H    3.02918887  -1.17729962  -1.92479932
H    2.90815902  -2.54048896  -0.80708969
H    4.43342829  -1.66042936  -0.94718969
H    1.83330941  -2.02329922   1.26974952
H    1.82823932  -0.29999989   1.94008923
H    2.91049886   1.48533940   0.74975967
H    3.02881885   1.23129964  -0.99868959
H    5.28184795   0.71596968   1.09873962
H    7.38578701   1.85711932  -1.35569954
H    7.30013704   0.40362984  -0.65510976

