%chk=mol_0900.chk
# wB97XD/Def2SVP opt pop=full gfinput

C 5 H 4 O 1

1 2
O    1.889764  -0.002570  -0.021052
C    4.573137   0.000000   0.000000
C    5.484023   2.572238   0.000000
C    6.234774   4.692322   0.000000
C    7.204978   7.419480   0.000019
C    7.964402   9.555098   0.000038
H    1.363097  -1.760091  -0.003742
H    5.238623  -1.024061  -1.668685
H    5.211732  -1.012704   1.686127
H    8.634177  11.452383  -0.000038

