%chk=mol_2246.chk
# wB97XD/Def2SVP opt freq pop=full gfinput

C 6 H 8 O 1

1 2
C    1.44623935   0.39932987  -0.24501991
C    2.68084908  -0.22572991   0.28683990
C    2.86111879  -1.72687936   0.27156991
C    4.32270861  -1.94135928  -0.06048998
C    4.94706774  -0.75406969  -0.15072994
C    4.05892849   0.38961986   0.11230996
O    3.32055879   0.50224984   1.34080946
H    1.52536952   1.49131942  -0.27716991
H    0.58890975   0.14133994   0.38457984
H    1.24236953   0.04846998  -1.26178956
H    2.23830914  -2.19103932  -0.50023979
H    2.61292911  -2.16467929   1.24354947
H    4.78299809  -2.90852880  -0.19399992
H    5.99942780  -0.62908977  -0.36842984
H    4.17104816   1.26575947  -0.51283979

