%chk=mol_1966.chk
# wB97XD/Def2SVP opt pop=full gfinput

C 5 H 12 N 2

1 2
N    4.252677  -0.805401  -2.725231
C    4.487457   0.039363  -0.109340
C    6.044081   2.454357   0.033032
C    4.773581   4.903990  -0.988100
C    6.053322   6.327767   1.214829
C    6.061240   3.786784   2.651513
N    8.509380   3.439698   3.874279
H    3.210135  -2.424575  -2.779636
H    5.990961  -1.268630  -3.413904
H    5.390973  -1.451083   1.007564
H    2.593592   0.338318   0.671609
H    7.939930   2.183541  -0.781912
H    2.703953   4.910831  -0.883371
H    5.350722   5.489900  -2.883155
H    7.909128   7.099985   0.706002
H    4.922359   7.832291   2.068173
H    4.409355   3.462791   3.851696
H   10.035069   3.847388   2.772455
H    8.799208   1.662279   4.553900

