%chk=mol_0242.chk
# wB97XD/Def2SVP opt pop=full gfinput

C 4 H 4 N 2

1 2
C   -1.421376   2.197052   0.015893
C    1.177847   2.234545   0.047621
N    2.613302   0.136230   0.101554
C    1.344843  -2.060898   0.123078
N   -1.177205  -2.328313   0.095998
C   -2.512259  -0.163783   0.042292
H   -2.534935   3.908558  -0.027420
H    2.214287   4.005426   0.030519
H    2.461274  -3.778564   0.166712
H   -4.551840  -0.391249   0.020674

