%chk=mol_5851.chk
# wB97XD/Def2SVP opt freq pop=full gfinput

C 4 H 7 N 1 O 2

1 2
N    1.60464942   0.51967978  -1.16464961
C    2.93288898   0.28708988  -0.94667965
O    3.75470853   0.46218985  -1.83769929
C    3.26471901  -0.18941994   0.45176983
C    4.72137833  -0.46563983   0.63991976
C    5.64306784   0.54325980   1.27171957
O    5.12431812  -0.57152981   2.01270914
H    0.89312965   0.37913987  -0.46158984
H    1.32655942   0.83380967  -2.08574915
H    2.70231891  -1.11058962   0.63984978
H    2.91689897   0.56963980   1.16217947
H    5.12628841  -1.18186951  -0.06381997
H    5.26210785   1.52794945   1.51133943
H    6.69111729   0.51872981   0.99854964

