%chk=mol_4319.chk
# wB97XD/Def2SVP opt freq pop=full gfinput

C 5 H 9 N 1 O 1

1 2
C    1.02730966   0.05731998   0.23166992
C    2.44414902   0.26108989  -0.29901990
C    2.73172879  -0.30476990  -1.66955936
C    1.86687922  -0.90650964  -2.49851894
C    2.71445918   1.74921930  -0.35483986
N    3.52231860   2.30965924   0.48871982
O    3.55005860   3.68715858   0.23957990
H    0.92677969   0.49448982   1.23194957
H    0.78070968  -1.00713956   0.30684990
H    0.27965990   0.54295981  -0.40640983
H    3.14621878  -0.19626993   0.40902987
H    3.76796865  -0.21466993  -1.99930930
H    0.82008970  -1.04968965  -2.25172925
H    2.19877934  -1.28256953  -3.46245885
H    2.16523910   2.33922911  -1.11170959
H    4.14254856   4.01456833   0.94254959

