%chk=mol_1981.chk
# wB97XD/Def2SVP opt freq pop=full gfinput

C 6 H 11 N 1

1 2
N    2.44422889  -0.43065986  -1.58852935
C    2.44368887   0.01991999  -0.19577993
C    3.29343867   1.28389955   0.00435000
C    3.33567882   1.71531940   1.48002946
C    3.38379884   3.24363899   1.47359943
C    2.80222893   3.58395863   0.14317995
C    2.74678898   2.51531911  -0.66027975
H    1.93247926  -1.30887949  -1.65891933
H    3.39921880  -0.62680978  -1.88475931
H    2.83490896  -0.78692973   0.43462983
H    1.40681946   0.20118994   0.11077996
H    4.31368828   1.10841954  -0.36102986
H    4.19597864   1.28572941   2.00470924
H    2.43522906   1.38154948   2.01347923
H    4.41024828   3.61665869   1.54768944
H    2.79339886   3.65940857   2.29532909
H    2.49609900   4.58093834  -0.14086995
H    2.39352918   2.52813888  -1.68281937

