%chk=mol_5185.chk
# wB97XD/Def2SVP opt freq pop=full gfinput

C 4 H 10 N 2 O 1

1 2
C    0.83458966   0.45363981  -0.84786969
N    2.25451922   0.29014990  -1.06125963
C    3.19270873   1.14207959  -0.52765983
N    3.01951885   2.41334915  -0.38763985
C    4.53579807   0.52952981  -0.08325997
C    4.38269806  -0.13190995   1.27548945
O    4.92936802  -0.46263981  -1.02849960
H    0.29642990  -0.40494984  -1.26093960
H    0.46284983   1.35378957  -1.34588957
H    0.60918981   0.51643980   0.22136992
H    2.55750895  -0.68428975  -1.03878963
H    2.10637927   2.66882896  -0.76826972
H    5.30413771   1.30905950  -0.04402998
H    3.70181870  -0.98904961   1.22265947
H    3.99461865   0.56810975   2.02131915
H    5.34679794  -0.51850981   1.62197948
H    5.06034803   0.01657999  -1.86713934

