%chk=mol_5485.chk
# wB97XD/Def2SVP opt freq pop=full gfinput

C 5 H 9 N 1 O 1

1 2
N    0.99571961  -0.02392999  -0.09540997
C    2.45287919  -0.09983996  -0.04576998
C    3.17642879  -0.79425973  -1.15564954
C    3.26932883   0.70838976  -1.03078961
C    4.54265833   1.43009937  -0.61445975
C    5.92525768   1.03785956  -1.07618952
O    5.21427822   2.11600924  -1.68717945
H    0.65400976   0.77165973   0.44316983
H    0.57356977  -0.85294968   0.32183987
H    2.86809874  -0.22090992   0.95256960
H    2.60013890  -1.19025958  -1.98424923
H    4.04138851  -1.39209950  -0.89621961
H    2.68706894   1.26663947  -1.76594925
H    4.47952843   1.97567916   0.32319990
H    6.04589796   0.13009995  -1.65284932
H    6.76690722   1.28771949  -0.44321984

