%chk=mol_7020.chk
# wB97XD/Def2SVP opt freq pop=full gfinput

C 6 H 13 N 1

1 2
C    1.06307960   0.09962996  -0.40485987
C    2.48801899  -0.40737984  -0.55709982
C    3.45654869   0.36424986   0.34339988
C    4.88605833  -0.12611996   0.21375991
C    5.61060762   0.29129988  -1.03857958
C    5.70329762  -0.26258990   1.48431945
N    5.19952774  -1.44056952   0.79199970
H    0.38689986  -0.47105983  -1.04931962
H    0.99036962   1.15518951  -0.68659973
H    0.71622974  -0.00548000   0.62831980
H    2.78891897  -0.31647989  -1.60599935
H    2.51732898  -1.47484946  -0.31017989
H    3.11787868   0.28013989   1.38434947
H    3.42248869   1.43237948   0.09563997
H    6.64292717  -0.07503998  -1.05995965
H    5.64609766   1.38446951  -1.10844958
H    5.10541773  -0.09327997  -1.93060935
H    5.23794794  -0.04076999   2.43726921
H    6.77393770  -0.10081997   1.45116949
H    5.94137764  -1.90674925   0.26717991

