%chk=mol_3978.chk
# wB97XD/Def2SVP opt freq pop=full gfinput

C 5 H 9 N 1 O 1

1 2
C    0.92842966   0.00907000   0.10933996
C    2.44834900   0.00472000  -0.03931998
C    3.16197896   1.02053964   0.88828969
N    4.09339857  -0.03842998   1.31360960
C    3.15555882  -1.06790960   0.82569969
C    2.87654877   0.03056999  -1.54411948
O    2.61508894  -0.81701964  -2.39702916
H    0.62223977  -0.00856000   1.16102946
H    0.48725981  -0.86629963  -0.37896985
H    0.49739981   0.90601969  -0.34790987
H    2.55164909   1.41105950   1.71148944
H    3.64292860   1.87114930   0.39468983
H    4.98863792  -0.03545999   0.82287967
H    3.63297868  -1.88736928   0.27857989
H    2.54333925  -1.50444949   1.62374938
H    3.46796870   0.91557962  -1.83593929

