%chk=mol_6006.chk
# wB97XD/Def2SVP opt pop=full gfinput

C 5 H 7 N 1 O 1

1 2
O    1.772374  -0.151896  -0.721762
C    4.045715  -0.032957  -0.247838
C    5.321185   2.434496   0.440968
C    8.088821   2.406453  -0.332535
N    9.278707   0.074606   0.521168
C    8.035323  -2.185638   0.225936
C    5.553055  -2.393792  -0.180204
H    4.348033   3.990516  -0.514648
H    5.129151   2.692879   2.486615
H    9.076506   4.030502   0.484110
H    8.261600   2.537978  -2.393678
H   11.181320  -0.021089   0.230055
H    9.240081  -3.846405   0.341738
H    4.582529  -4.172194  -0.434524

