%chk=mol_6702.chk
# wB97XD/Def2SVP opt freq pop=full gfinput

C 4 H 6 O 2 S 1

1 2
O    0.95160961   0.00606000  -0.06515998
S    2.39343905   0.03432999  -0.20134993
O    3.04121876   0.16246994  -1.48964942
C    3.07938886  -1.38071942   0.65686977
C    3.37100863  -0.89290971   2.07174921
C    3.51599860   0.60049975   2.01220918
C    3.05314898   1.19283950   0.90319967
H    4.00335884  -1.66232932   0.14278995
H    2.37142920  -2.21135926   0.62880975
H    4.27948809  -1.36479950   2.45795918
H    2.54678893  -1.14682961   2.74783897
H    3.94353843   1.15840960   2.83765888
H    3.05149889   2.24707937   0.67972976

