%chk=mol_1249.chk
# wB97XD/Def2SVP opt freq pop=full gfinput

C 6 H 13 N 1

1 2
C    0.86576968  -0.51869982   0.14609994
C    2.37034917  -0.40200984  -0.11126996
C    2.77841902  -1.35922956  -1.23347950
C    2.73441911   1.06421959  -0.42428985
N    4.17506838   1.23027956  -0.65361977
C    4.64871788   2.58731890  -0.40236986
C    4.94361830   1.46708941   0.56213981
H    0.56351978   0.11891995   0.98302960
H    0.59155977  -1.54901946   0.39554986
H    0.28759989  -0.21824992  -0.73502976
H    2.89087892  -0.70866978   0.80516970
H    2.29107904  -1.09557962  -2.17764902
H    2.49678898  -2.38820910  -0.98342961
H    3.86145854  -1.34916949  -1.39399946
H    2.36350918   1.70534945   0.38762987
H    2.20744920   1.38299954  -1.33273959
H    3.93337846   3.34626889  -0.11167996
H    5.45129776   2.93151903  -1.04290962
H    5.94573736   1.05181956   0.56991982
H    4.43047810   1.44939947   1.51537943

