%chk=mol_3763.chk
# wB97XD/Def2SVP opt pop=full gfinput

C 5 H 8 O 2

1 2
O    9.498255  -1.967810  -1.097043
C    6.906401  -2.369698  -0.541633
C    5.514637   0.077176  -0.346028
C    6.507990   2.383209  -0.650122
O    5.069115   4.529239  -0.434089
C    6.193502   6.840771  -0.758290
C    4.886756   8.990674  -0.587591
H   10.280091  -3.627934  -1.187712
H    6.767298  -3.398427   1.246841
H    6.081252  -3.525095  -2.045496
H    3.511810  -0.065857   0.085397
H    8.483131   2.683808  -1.082681
H    8.196366   6.802863  -1.157892
H    2.877051   8.969283  -0.184211
H    5.803708  10.803791  -0.848733

