%chk=mol_7062.chk
# wB97XD/Def2SVP opt pop=full gfinput

C 6 H 13 N 1

1 2
C    6.902754  -0.804910  -1.539163
C    5.332032   0.137572   0.681341
C    5.887612   2.906588   1.387399
C    3.944217   3.814280   3.333345
C    8.527313   3.193751   2.432928
C   10.629199   4.224710   0.801641
N    9.548881   5.735413   2.832246
H    6.367319  -2.746131  -2.008609
H    8.920906  -0.798693  -1.097912
H    6.591459   0.366305  -3.213101
H    5.665513  -1.098838   2.312741
H    3.328923  -0.058638   0.179996
H    5.667062   4.076876  -0.312825
H    4.087440   2.738005   5.096667
H    2.017283   3.610870   2.604137
H    4.233024   5.810851   3.792416
H    8.985119   1.815384   3.877794
H   10.197321   4.859147  -1.098271
H   12.530131   3.522147   1.084873
H   10.713198   5.765800   4.372562

