%chk=mol_5273.chk
# wB97XD/Def2SVP opt freq pop=full gfinput

C 5 H 11 N 1 O 1

1 2
C    1.90414917  -0.67298973  -1.19537961
O    1.70994937   0.40153983  -0.28384990
C    2.92311883   1.10019958   0.08731997
C    3.78882861   0.36258987   1.06348956
C    3.53155875   2.01998925  -0.93982965
C    2.74354887   2.60412908   0.19574992
N    3.42782855   3.41787863   1.20309961
H    2.47141910  -0.34830987  -2.07216907
H    0.92219967  -1.02099955  -1.52663946
H    2.41607904  -1.50301945  -0.70166969
H    4.70609808   0.90793967   1.30311954
H    4.09097815  -0.60713983   0.65772974
H    3.24186873   0.18794994   1.99486923
H    3.08293891   2.06758928  -1.92505932
H    4.60667801   2.14923906  -0.94683963
H    1.75219941   2.97937894  -0.05449998
H    4.38325834   3.10558891   1.36374950
H    2.94805884   3.33993888   2.09986925

