%chk=mol_4243.chk
# wB97XD/Def2SVP opt pop=full gfinput

C 5 H 7 N 1 O 1

1 2
C    1.845053  -0.278149  -0.026362
C    4.690073   0.109925   0.046166
C    5.357997   2.822665   0.016951
C    5.889634   4.600028   1.838609
N    6.396383   6.884499   0.724786
C    6.157578   6.411368  -1.701566
O    5.530113   3.985206  -2.285435
H    1.395298  -2.297113  -0.001625
H    1.020206   0.542918  -1.738454
H    0.926646   0.604618   1.605492
H    5.559102  -0.843366  -1.574444
H    5.460968  -0.778832   1.750926
H    5.931756   4.359579   3.866795
H    6.393492   7.697762  -3.268508

