%chk=mol_2865.chk
# wB97XD/Def2SVP opt freq pop=full gfinput

C 7 H 12

1 2
C    0.69600976   0.32611990   0.13086995
C    2.09798932  -0.22576991   0.17622994
C    2.17190933  -1.67884934   0.55448979
C    3.15244889   0.56534976  -0.10649996
C    4.61336851   0.21236992  -0.11031996
C    5.36897802   1.04433966   0.88662964
C    6.36115742   1.88913929   0.57220978
H    0.67498970   1.39183939  -0.12084996
H    0.20990993   0.20647992   1.10490966
H    0.10374997  -0.20508993  -0.62155980
H    1.55132949  -2.27535915  -0.12339995
H    1.79958940  -1.82031941   1.57465935
H    3.18083882  -2.09296918   0.51181978
H    2.95611882   1.60363936  -0.37685987
H    5.00226784   0.37361985  -1.12334967
H    4.79152822  -0.84039968   0.12314995
H    5.08145809   0.93376964   1.93021917
H    6.68678761   2.02986932  -0.45347983
H    6.86870718   2.45919895   1.34340954

