%chk=mol_6013.chk
# wB97XD/Def2SVP opt pop=full gfinput

C 4 H 6 N 2 O 1

1 2
O    1.768727  -0.153068   0.252203
C    4.456503   0.033524   0.178277
C    5.249602   2.470231  -1.057812
C    7.188499   2.108613  -3.066043
N    8.018694  -0.026286  -3.915645
N    7.050701  -2.285227  -2.992060
C    5.427444  -2.264062  -1.164204
H    1.133193   1.240208   1.269027
H    5.133007  -0.066518   2.132121
H    6.061316   3.749500   0.355325
H    3.648645   3.479288  -1.898986
H    7.977441   3.843835  -3.907935
H    4.734066  -4.102822  -0.470315

