%chk=mol_6625.chk
# wB97XD/Def2SVP opt freq pop=full gfinput

C 3 H 7 N 1 O 2 S 1

1 2
C    1.18844962   0.17197993   0.14181995
S    2.89880896  -0.12740995  -0.21325992
O    3.40719867  -1.03778958   0.79303968
O    3.00869870  -0.41287982  -1.63063943
C    3.66000867   1.52705944   0.03455999
C    4.07177830   1.78078926   1.46076941
N    5.07446814   1.70003939   0.40228984
H    0.81345969   0.93425965  -0.54345977
H    1.09512949   0.50310981   1.17751956
H    0.64133978  -0.76191974  -0.00275000
H    3.21822882   2.32817912  -0.54170978
H    4.10256863   0.96978968   2.17876911
H    3.89881849   2.76089883   1.88740933
H    5.40680790   2.62391901   0.12443995

