%chk=mol_1593.chk
# wB97XD/Def2SVP opt pop=full gfinput

C 5 H 6 N 2

1 2
C    1.688074   0.154485  -0.133301
C    4.513535   0.135626  -0.130901
N    5.778594   2.007532   0.800885
N    8.366876   1.566696   0.593431
C    9.631197   3.425242   1.518414
C   12.310508   3.048015   1.342821
C   14.556503   2.742786   1.201072
H    1.008150  -1.483473   0.925361
H    1.020660   0.005480  -2.082214
H    0.957297   1.886381   0.721082
H    5.450499  -1.537840  -0.955332
H    8.851270   5.154417   2.370926
H   16.545818   2.455245   1.066996

