%chk=mol_3838.chk
# wB97XD/Def2SVP opt pop=full gfinput

C 5 H 11 N 1 O 1

1 2
C   -2.756449   1.411210   0.259648
C   -2.791485  -1.438100  -0.210270
N   -0.571226  -2.799384   0.718209
C    1.661617  -2.293315  -0.844084
C    3.165499   0.076345  -0.087079
O    1.703305   2.186829   0.733856
C   -0.435185   2.745583  -0.795972
H   -4.456428   2.232541  -0.594754
H   -2.870003   1.751153   2.302896
H   -3.085073  -1.825967  -2.225342
H   -4.450135  -2.221694   0.753094
H   -0.200462  -2.230425   2.526224
H    2.934461  -3.923279  -0.710083
H    1.135895  -2.183144  -2.847137
H    4.429348  -0.396181   1.483662
H    4.364323   0.679130  -1.664716
H   -0.738259   4.788661  -0.660006
H   -0.093938   2.310946  -2.791957

