%chk=mol_0488.chk
# wB97XD/Def2SVP opt pop=full gfinput

C 5 H 9 N 1

1 2
C    1.858621  -0.063533   0.014475
N    4.612292  -0.042519   0.052308
C    5.582516   2.555949  -0.028157
C    8.480996   2.579533   0.010582
C    9.468832   5.178851  -0.092483
C   10.283795   7.294777  -0.173099
H    1.184405  -2.017132   0.091595
H    1.117830   0.797389  -1.714945
H    1.079015   0.928952   1.653737
H    5.271051  -1.022115  -1.471454
H    4.869862   3.620432   1.602696
H    4.905673   3.511584  -1.740438
H    9.216175   1.505526  -1.602488
H    9.170860   1.646462   1.727531
H   11.011982   9.171843  -0.239542

