%chk=mol_6682.chk
# wB97XD/Def2SVP opt freq pop=full gfinput

C 4 H 5 N 1 O 1 S 1

1 2
O    1.67099941  -0.30097988  -1.10014951
C    2.59554911  -0.13763995  -0.03174999
C    2.95172906   1.30138958   0.03957998
C    2.23584938   2.43188906  -0.30731988
C    2.99663877   3.60319853  -0.03892999
N    4.20649862   3.42903876   0.48509982
S    4.46751833   1.80075932   0.66431975
H    1.48950946  -1.25326955  -1.16771960
H    3.46887851  -0.76636970  -0.23165990
H    2.11826921  -0.46276984   0.89793968
H    1.23989952   2.41299915  -0.73026967
H    2.67769909   4.62175846  -0.22105992

