%chk=mol_1904.chk
# wB97XD/Def2SVP opt freq pop=full gfinput

C 5 H 10 N 2

1 2
N    1.07540965  -0.02768999   0.54242980
C    2.45977902  -0.02981999   0.04491998
C    2.80208898  -1.36713946  -0.61055976
C    2.58536887  -1.12046957  -2.07077932
C    3.62432861  -0.40968987  -2.88832903
N    2.47221899   0.32248989  -2.37271905
C    2.69562888   1.00212967  -1.08032954
H    0.82908970   0.90036964   0.88290966
H    0.98616964  -0.66948974   1.32784951
H    3.12175894   0.16800995   0.89459968
H    2.18884921  -2.19620919  -0.24013990
H    3.85074854  -1.62698936  -0.42399985
H    1.84974921  -1.75681937  -2.54137897
H    4.59884834  -0.20662992  -2.46233892
H    3.62718868  -0.58003980  -3.95874834
H    3.71644855   1.40105951  -1.02048957
H    2.02013922   1.86065936  -0.98801965

