%chk=mol_2555.chk
# wB97XD/Def2SVP opt pop=full gfinput

C 6 H 12 O 1

1 2
C    1.854577   0.029536  -0.010431
C    4.729002   0.015911   0.053252
O    5.590037   0.263825  -2.493097
C    5.820130   2.150206   1.664490
C    8.490067   1.249770   2.247395
C    8.223370  -1.591206   2.631840
C    5.822738  -2.398535   1.224240
H    1.043356  -0.146416   1.884133
H    1.140998  -1.527088  -1.173992
H    1.149331   1.779820  -0.862131
H    7.415985   0.071413  -2.519156
H    4.760296   2.368243   3.431913
H    5.851632   3.967008   0.675879
H    9.747453   1.634953   0.646834
H    9.286606   2.190117   3.907481
H    9.892320  -2.603419   1.946966
H    8.024722  -2.023897   4.648027
H    6.264990  -3.824825  -0.209949
H    4.508527  -3.248647   2.581952

