%chk=mol_3751.chk
# wB97XD/Def2SVP opt pop=full gfinput

C 5 H 10 O 2

1 2
O    4.757083  -1.348773   1.007659
C    4.401853   1.179397   1.866917
C    5.482511   3.047807  -0.051797
C    8.321465   2.910462  -0.188179
C    9.870379   4.851040   0.335105
C   12.686242   4.715453   0.194850
O   13.524770   6.527965  -1.592416
H    4.103162  -2.456266   2.321075
H    5.307315   1.389213   3.716978
H    2.367808   1.493791   2.084670
H    4.873981   4.960720   0.452722
H    4.731156   2.625359  -1.935193
H    9.099730   1.095096  -0.764583
H    9.093551   6.662929   0.911320
H   13.366770   2.849839  -0.384295
H   13.516833   5.171160   2.032041
H   12.628964   6.169351  -3.156806

