%chk=mol_6075.chk
# wB97XD/Def2SVP opt pop=full gfinput

C 4 H 6 N 2 O 1

1 2
O    3.289711   0.447355   1.859339
C    4.953652  -0.000057   0.328416
N    5.196747  -2.275136  -0.972321
C    7.631942  -2.511011  -2.149960
C    8.755196   0.073189  -1.817444
C    7.471618   2.371493  -2.837934
N    7.022147   1.548347  -0.305191
H    4.047888  -3.728146  -0.506673
H    8.718535  -3.954630  -1.147650
H    7.391267  -3.034258  -4.132926
H   10.685154   0.128842  -1.164204
H    8.507037   4.129014  -2.942663
H    5.875915   2.183465  -4.102728

