%chk=mol_3206.chk
# wB97XD/Def2SVP opt pop=full gfinput

C 6 H 10 O 1

1 2
C    2.154685   5.770789   0.814302
C    5.000896   6.122108   0.746272
O    6.118366   3.767622   0.052799
C    8.696425   3.665445  -0.081428
C   10.399560   5.489465   0.365379
C   13.086807   5.057398   0.140860
C   14.817759   6.845344   0.598117
H    1.205966   7.534999   1.320163
H    1.635256   4.314982   2.189096
H    1.454371   5.137995  -1.026802
H    5.660807   6.703671   2.622335
H    5.480508   7.575080  -0.649518
H    9.236547   1.766138  -0.636630
H    9.809247   7.373371   0.920769
H   13.715935   3.183527  -0.426209
H   14.303923   8.746012   1.171441
H   16.816597   6.428414   0.404912

