%chk=mol_2705.chk
# wB97XD/Def2SVP opt pop=full gfinput

C 6 H 10 O 1

1 2
C    1.565430   0.638123   0.892933
C    4.309218   0.092786   0.446845
C    5.224034  -2.275192   0.434920
C    6.132123   2.211320   0.031558
C    5.146064   4.908185  -0.402587
O    6.850937   5.901842   1.504713
C    7.306796   3.359309   2.426219
H    1.328289   1.869185   2.538431
H    0.482806  -1.089616   1.250829
H    0.732344   1.561046  -0.760142
H    4.001325  -3.897560   0.735878
H    7.214219  -2.672243   0.123569
H    7.567597   1.718479  -1.387135
H    3.186286   5.333827   0.094732
H    5.556513   5.692157  -2.271394
H    9.323437   2.984633   2.680898
H    6.308038   3.032198   4.209006

