%chk=mol_2702.chk
# wB97XD/Def2SVP opt pop=full gfinput

C 6 H 10 O 1

1 2
C    4.261710   5.013840  -1.238262
C    5.154890   2.668501  -0.903705
C    6.561394   1.819655   1.408659
C    9.193518   0.964894   0.646192
C   11.164445   3.023808   0.105787
O   12.932681   1.883036   1.858602
C   10.955782   0.261803   2.837046
H    3.236326   5.510687  -2.946026
H    4.517315   6.482535   0.170340
H    4.821315   1.262639  -2.368753
H    5.527676   0.241961   2.264308
H    6.650343   3.327109   2.827427
H    9.167439  -0.516160  -0.808066
H   10.679334   4.946661   0.694701
H   11.904651   3.048355  -1.823246
H   11.542730  -1.718725   2.890525
H   10.369494   0.866798   4.725978

