%chk=mol_5254.chk
# wB97XD/Def2SVP opt pop=full gfinput

C 4 H 7 N 1 O 2

1 2
C    2.668274   4.648859   1.104847
N    5.017506   4.649312   0.454876
O    5.896002   2.150111   0.455178
C    8.512082   2.168839  -0.327244
C   10.477416   3.006139   1.625826
O   11.948474   0.724445   1.247295
C    9.896534  -0.368591  -0.198724
H    1.620837   6.443324   1.213828
H    1.618248   2.908723   1.568718
H    8.741174   3.086641  -2.172845
H    9.809474   3.148870   3.577648
H   11.547795   4.701166   1.125502
H   10.545938  -1.108192  -2.015620
H    8.942789  -1.863780   0.864606

