%chk=mol_2594.chk
# wB97XD/Def2SVP opt pop=full gfinput

C 6 H 8 O 1

1 2
C    4.601351  -0.948246  -2.662492
C    4.716568   0.114291   0.004044
C    5.475274   2.812196   0.005480
C    4.139861   5.050803   0.025247
C    5.961028   7.010222   0.012245
C    8.281252   5.843997  -0.014097
O    8.005825   3.293622  -0.017499
H    4.037268  -2.937466  -2.617441
H    6.442851  -0.823014  -3.597774
H    3.230600   0.082770  -3.819703
H    6.057252  -0.990859   1.133155
H    2.862217  -0.087286   0.906067
H    2.106931   5.239889   0.045524
H    5.625450   9.024859   0.020693
H   10.210077   6.521823  -0.031029

