%chk=mol_0908.chk
# wB97XD/Def2SVP opt freq pop=full gfinput

C 4 H 6 O 2

1 2
O    1.40552938  -0.24174991   0.14619994
C    2.69600892   0.31423989  -0.04585999
C    3.15600872  -0.06736997  -1.41763937
C    4.37879848  -0.53148979  -1.71234930
C    2.67929912   1.83598924   0.06421998
O    1.68168938   2.46932912   0.40646985
H    0.87004966   0.45743984   0.57180977
H    3.35867882  -0.07314997   0.73430973
H    2.42263889   0.02634999  -2.21685910
H    5.14442778  -0.66175973  -0.95364964
H    4.63494825  -0.80478966  -2.73219895
H    3.64286852   2.34221911  -0.11822996

