%chk=mol_2783.chk
# wB97XD/Def2SVP opt pop=full gfinput

C 6 H 8 O 1

1 2
C    2.464184   0.273273   0.509924
C    5.273054   0.230490  -0.017272
C    6.575321  -2.189947   0.198005
C    5.519852  -4.400775   0.844141
C    6.410764   2.419756  -0.649140
C    9.111334   2.820322  -1.247900
O    9.920193   4.934302  -1.747014
H    1.650903   2.163774   0.277525
H    2.074277  -0.318665   2.455019
H    1.454541  -0.980862  -0.791587
H    8.590960  -2.243351  -0.190088
H    3.529517  -4.615127   1.283974
H    6.667577  -6.100622   0.951496
H    5.323963   4.160024  -0.763468
H   10.354112   1.157967  -1.231516

