%chk=mol_6735.chk
# wB97XD/Def2SVP opt freq pop=full gfinput

C 5 H 6 N 2

1 2
C    0.88106966  -0.07929997   0.00638000
C    2.21632910   0.03629998  -0.01447999
C    2.95568871   1.31980944  -0.05055998
C    4.44000816   1.10520959  -0.00007000
N    5.06246805  -0.03050999   0.02617999
N    4.33400822  -1.22300947   0.01315000
C    3.04336882  -1.18295956  -0.00036000
H    0.24382991   0.80033970  -0.00284000
H    0.38245985  -1.04370964   0.03364998
H    2.68514895   1.95279932   0.80154967
H    2.73432899   1.87370920  -0.96928966
H    5.05878830   2.01808929   0.00870000
H    2.50093913  -2.14315915  -0.00125000

