%chk=mol_4331.chk
# wB97XD/Def2SVP opt pop=full gfinput

C 5 H 7 N 1 O 1

1 2
C    2.004281  -0.000246  -0.117730
C    4.848811   0.224292  -0.002759
C    6.349480  -2.223338   0.004271
C    6.595276  -3.257737  -2.563432
C    6.802768  -4.109190  -4.657873
N    5.810095   2.488183   0.031048
O    8.449230   2.432285   0.090934
H    1.119644   1.864876  -0.019445
H    1.341479  -1.141621   1.471756
H    1.453577  -0.912662  -1.887326
H    5.352555  -3.579368   1.210880
H    8.212938  -1.945322   0.854364
H    6.996503  -4.855236  -6.517722
H    8.884680   4.222612   0.024718

