%chk=mol_5068.chk
# wB97XD/Def2SVP opt freq pop=full gfinput

C 5 H 9 N 1 O 1

1 2
C    1.12609959  -1.11041951   0.31811988
N    2.33892918  -0.42050982  -0.06239998
C    2.60377908   0.90133965   0.19651993
C    3.78309870   1.51320934   0.03716999
C    4.03028822   2.95042896   0.32663989
C    2.93775892   3.79350853   0.92920971
O    5.13584805   3.42312860   0.06298998
H    1.12551951  -2.12015915  -0.10348996
H    0.24378991  -0.58341980  -0.05947998
H    1.05395961  -1.19084954   1.40725946
H    3.14882898  -1.01132965  -0.23970990
H    1.72718930   1.43980944   0.54995978
H    4.64886856   0.97588962  -0.33376989
H    2.56956887   3.33570886   1.85090935
H    2.12562919   3.92485857   0.21015993
H    3.34141874   4.77853823   1.18230963

