%chk=mol_3746.chk
# wB97XD/Def2SVP opt freq pop=full gfinput

C 5 H 6 O 2

1 2
O    1.17342961  -0.01610000   0.42992982
C    2.53383923   0.05957998  -0.00011000
C    2.61807895  -0.37816986  -1.46017945
C    4.00618839  -0.58029979  -1.90516925
C    5.13731813  -0.74186975  -2.27655911
C    3.05471897   1.47974944   0.17092994
O    2.41674900   2.34943914   0.76297969
H    1.03293955   0.74124968   1.03541958
H    3.12826872  -0.59406978   0.64760977
H    2.12635922   0.36300987  -2.10247922
H    2.05420923  -1.31009948  -1.59343934
H    6.13700771  -0.88945967  -2.61600900
H    4.07429838   1.67624927  -0.20097993

