%chk=mol_5696.chk
# wB97XD/Def2SVP opt pop=full gfinput

C 5 H 5 N 1 O 1

1 2
N    1.889726   0.000000   0.000000
C    4.064820   0.000000   0.000000
C    6.721775   0.000000   0.000000
C    8.087385   2.013258  -0.716225
C   10.853547   2.180895  -0.708969
C   12.350513   0.664673  -2.604194
O   12.207537   3.362446  -2.742767
H    7.653013  -1.709276   0.641146
H    7.112702   3.714446  -1.346581
H   11.666394   2.421174   1.160802
H   11.371673  -0.398241  -4.053047
H   14.126742  -0.155071  -2.001711

