%chk=mol_5858.chk
# wB97XD/Def2SVP opt freq pop=full gfinput

C 5 H 9 N 1 O 1

1 2
N    1.15028954  -0.22955991   0.46961984
C    2.44693899  -0.22662991   0.04407999
O    2.97392893  -1.25151956  -0.36832985
C    3.11368871   1.12978959   0.08527997
C    4.63290834   1.00593960   0.00211000
C    5.29422760   2.35415912   0.06614997
C    6.09622812   2.74847889   1.06260955
H    0.71958971   0.56377977   0.92305970
H    0.67114973  -1.12048960   0.49209979
H    2.82664895   1.64082932   1.01217961
H    2.73070908   1.71704936  -0.75834972
H    4.92303801   0.51765978  -0.93643969
H    4.99360800   0.35777986   0.81188971
H    5.11299801   3.03081894  -0.76563972
H    6.31608772   2.10431910   1.90889919
H    6.55513763   3.73179865   1.05001962

