%chk=mol_5422.chk
# wB97XD/Def2SVP opt freq pop=full gfinput

C 4 H 7 N 1 O 2

1 2
C    1.61749935  -0.47180980  -0.74541974
O    2.63163900   0.28615990  -1.40315950
C    3.73546863   0.52095979  -0.64330977
O    3.87566853   0.14343995   0.51464981
N    4.67010832   1.23811948  -1.37724948
C    6.06556749   0.91830969  -1.28964961
C    5.53437805   2.18536925  -0.73288971
H    0.86111969  -0.74022973  -1.48774946
H    1.14307952   0.13241994   0.03299999
H    2.02555919  -1.39624941  -0.32458988
H    6.56600761   0.92766964  -2.24788928
H    6.31711769   0.10796996  -0.61716980
H    5.41278839   2.27926922   0.33919987
H    5.65738821   3.10268903  -1.29033959

