%chk=mol_3657.chk
# wB97XD/Def2SVP opt freq pop=full gfinput

C 5 H 4 O 2

1 2
O    2.60975909  -1.15282965   0.06822997
C    2.12414932  -0.02811999   0.00713000
C    2.91521883   1.17995954   0.00256000
C    2.41796923   2.46400905  -0.06398997
O    3.42901874   3.37099886  -0.04821998
C    4.58864784   2.66882896   0.02913999
C    4.32947874   1.31925952   0.06315998
H    1.03132963   0.11305995  -0.04881998
H    1.42317951   2.88433886  -0.12426995
H    5.49403763   3.26010871   0.05069998
H    5.06175804   0.52515978   0.12383996

