%chk=mol_4776.chk
# wB97XD/Def2SVP opt freq pop=full gfinput

C 4 H 10 N 2 O 1

1 2
C    1.18234956  -0.49474981  -0.34229988
C    2.63262916  -0.45910981   0.08008996
N    3.20675898  -1.53922939   0.50096983
N    3.28591871   0.74236971   0.03859998
C    4.73788834   0.88573968   0.09142997
C    5.30402803   0.59713978   1.48725939
O    5.45536804  -0.79963970   1.72250938
H    0.96624964   0.31365988  -1.04622960
H    0.55101979  -0.37701988   0.54294980
H    0.95122963  -1.45002937  -0.82230967
H    2.54750919  -2.32716918   0.47088981
H    2.81261897   1.50074935  -0.44132984
H    4.97369814   1.92343938  -0.16879994
H    5.19979811   0.23791991  -0.66160971
H    4.66873837   1.01635957   2.27440906
H    6.29987717   1.04216957   1.57837939
H    4.63324785  -1.21613955   1.36324954

