%chk=mol_1765.chk
# wB97XD/Def2SVP opt pop=full gfinput

C 7 H 8

1 2
C    1.889726   0.000000   0.000000
C    4.138803   0.000000   0.000000
C    6.867567   0.000000   0.000000
C    7.921392  -2.304691  -1.438838
C    8.530129  -1.261997  -3.996941
C    8.531735   1.264680  -3.996846
C    7.921675   2.304162  -1.434661
H   -0.124117   0.000000  -0.007823
H    7.544977  -0.001304   1.957945
H    6.570446  -3.866663  -1.559874
H    9.659751  -3.000375  -0.556789
H    8.951973  -2.427845  -5.621935
H    8.954524   2.432985  -5.619082
H    9.662548   2.999449  -0.552896
H    6.572543   3.869120  -1.555679

