%chk=mol_3275.chk
# wB97XD/Def2SVP opt pop=full gfinput

C 7 H 10

1 2
C    1.889726   0.000000   0.000000
C    4.618491   0.000000   0.000000
C    6.867567   0.000000   0.000000
C    9.596332   0.000000   0.000000
C   10.644374   2.695071  -0.144734
C   13.486427   2.732714  -0.148306
C   14.889927   3.892118   1.608988
H    1.145212   1.929203   0.021656
H    1.145023  -0.983281   1.659860
H    1.145042  -0.945751  -1.681535
H   10.298780  -1.109931  -1.603584
H   10.298535  -0.929292   1.714738
H    9.905377   3.820535   1.434000
H    9.979833   3.616539  -1.880032
H   14.429873   1.774169  -1.704268
H   14.038568   4.890422   3.186872
H   16.939770   3.871406   1.499006

