%chk=mol_6941.chk
# wB97XD/Def2SVP opt freq pop=full gfinput

C 7 H 10

1 2
C    1.01239967   0.02364999   0.57021976
C    2.26914907   0.00338000   0.10971995
C    3.04796886  -1.24298942  -0.25284991
C    4.11238861  -0.79095972  -1.22167957
C    5.33753777  -0.04524998  -0.76452971
C    4.12696838   0.70952970  -1.24901950
C    3.07288885   1.21818960  -0.29809991
H    0.49214983   0.96083963   0.74353975
H    0.47317982  -0.89487964   0.77734971
H    2.40056920  -1.99489927  -0.71563971
H    3.51339865  -1.67398942   0.64033979
H    4.12871838  -1.33624947  -2.15450931
H    5.57212782  -0.02835999   0.29346991
H    6.20944738  -0.06627998  -1.40864944
H    4.15582848   1.21918964  -2.20121908
H    3.54730868   1.67267931   0.57829976
H    2.44114900   1.96544921  -0.78895968

