%chk=mol_0334.chk
# wB97XD/Def2SVP opt freq pop=full gfinput

C 5 H 3 N 1

1 2
C    0.99999964   0.00000000   0.00000000
C    2.19015908   0.00000000   0.00000000
C    3.59615874   0.00000000   0.00000000
C    4.25317812   1.13798952   0.00000000
C    5.65917826   1.13798952   0.00000000
N    6.81018782   1.13798952   0.00000000
H   -0.06366997  -0.00275000  -0.00000000
H    4.10593843  -0.96035963   0.00000000
H    3.74994874   2.09814930   0.00000000

