%chk=mol_4244.chk
# wB97XD/Def2SVP opt pop=full gfinput

C 5 H 5 N 1 O 1

1 2
C    5.268783  -2.064790   0.798012
C    4.171589   0.160986   0.309575
C    5.607630   2.420135   0.154958
C    4.825548   4.878933  -0.327074
N    6.818774   6.534673  -0.314545
C    8.755007   5.069134   0.169452
O    8.197481   2.585145   0.476135
H    4.147023  -3.777827   0.910848
H    7.291622  -2.246658   1.096570
H    2.141816   0.261538   0.022563
H    2.918455   5.523103  -0.681114
H   10.719717   5.594855   0.351640

