%chk=mol_0967.chk
# wB97XD/Def2SVP opt freq pop=full gfinput

C 4 H 7 N 1 O 1

1 2
C    0.94508964  -0.00354000  -0.06797998
C    2.43513894   0.06268997  -0.15262994
C    3.15210867   1.11735952   0.25852990
C    4.62390852   1.10488963   0.14048994
N    5.34079790   2.10859919   0.52904981
O    6.69076729   1.81782937   0.29736990
H    0.64446974  -0.85396969   0.55135977
H    0.52069980  -0.13818994  -1.06745970
H    0.51449984   0.90441966   0.36641988
H    2.92855883  -0.81027973  -0.57602984
H    2.70377898   2.00682926   0.68575972
H    5.07919836   0.19828993  -0.29479986
H    7.13508749   2.62404895   0.61945975

