%chk=mol_6601.chk
# wB97XD/Def2SVP opt pop=full gfinput

C 4 H 6 N 2 S 1

1 2
C    1.709333  -0.017140  -0.001512
N    4.449285  -0.222855   0.010450
C    5.676832   1.857506   0.012453
N    4.943958   4.346578   0.005858
C    6.855284   6.095539   0.012737
C    9.184636   5.102676   0.024831
S    9.060991   1.791007   0.027892
H    0.888115  -1.915275  -0.018085
H    1.029617   0.968938  -1.689453
H    1.015085   0.946526   1.693384
H    3.115157   4.875834  -0.002098
H    6.385404   8.085136   0.008409
H   10.941779   6.142876   0.032182

