%chk=mol_3744.chk
# wB97XD/Def2SVP opt freq pop=full gfinput

C 5 H 8 O 2

1 2
O    1.53943944  -0.36405987  -1.23071945
C    2.11771917   0.10003996  -0.25291991
C    2.79277897   1.44516957  -0.25773990
C    4.27158833   1.29005945   0.08856997
C    5.01440811   2.62274909   0.09110997
C    4.67093849   3.50181866   1.27156949
O    3.91488838   3.17629862   2.18014908
H    2.14583921  -0.44965982   0.70346969
H    2.27066922   2.07620931   0.46774983
H    2.67394900   1.89642930  -1.24881959
H    4.74050808   0.62785977  -0.65015978
H    4.37871838   0.79196966   1.06030953
H    4.80857849   3.18579865  -0.82487965
H    6.09318781   2.43933916   0.13897994
H    5.16828823   4.48751831   1.28054953

