%chk=mol_4237.chk
# wB97XD/Def2SVP opt freq pop=full gfinput

C 5 H 7 N 1 O 1

1 2
C    2.03951931  -0.85803968  -0.77202970
C    1.96497929   0.47936982  -0.79376966
C    2.72507906   1.38949943   0.06216998
C    4.12147856   1.74713933  -0.30045989
N    3.04632902   2.67904902  -0.48066983
C    2.95968890   3.80659842   0.32099986
O    3.24913859   3.89372849   1.50671947
H    1.43282950  -1.46025944  -1.44087946
H    2.70321894  -1.37673938  -0.08741997
H    1.27350962   0.93806964  -1.49905944
H    2.44965911   1.38821948   1.11273956
H    4.54756832   1.39905953  -1.23100948
H    4.82143831   1.98552918   0.49026984
H    2.58178902   4.66271830  -0.26104990

