%chk=mol_5752.chk
# wB97XD/Def2SVP opt freq pop=full gfinput

C 5 H 9 N 1 O 1

1 2
N    1.08206964  -0.22321992  -0.58240974
C    2.46996903  -0.25848991  -0.12993996
C    3.06751871   1.14732957  -0.13823995
C    4.53550816   1.16195965   0.29567987
O    5.06253815   2.46828890   0.07005997
C    4.70642805   0.82310969   1.71585941
C    4.84824800   0.54952979   2.87800884
H    0.70752972  -1.17140949  -0.60149974
H    1.03828955   0.11885995  -1.54194939
H    3.04635882  -0.91960967  -0.78635973
H    2.49572897  -0.68384975   0.87832969
H    2.47907901   1.81286931   0.50842983
H    2.99441886   1.57509947  -1.14745963
H    5.11504793   0.47211984  -0.32718986
H    4.64007807   3.05692887   0.71913975
H    4.97664833   0.30808988   3.90737867

