%chk=mol_4957.chk
# wB97XD/Def2SVP opt freq pop=full gfinput

C 5 H 11 N 1 O 1

1 2
C    1.24336946  -0.02919999  -0.15261994
N    2.69966888   0.02657999  -0.12991995
C    3.33649874  -0.54731983  -1.30570960
C    3.33960891   0.95858961  -1.07969964
C    2.52417922   1.82431936  -2.00745916
C    4.61900806   1.61006939  -0.59670973
O    5.55522823   1.68409932  -1.66756940
H    0.82242972   0.89833969   0.24942991
H    0.91087967  -0.84478968   0.49827981
H    0.80250967  -0.21083993  -1.13888955
H    2.71504903  -0.96103960  -2.09110928
H    4.24604845  -1.10637963  -1.11666954
H    1.74381936   1.26789951  -2.53620911
H    3.16424894   2.27273917  -2.77520895
H    2.04909921   2.63754892  -1.44849944
H    5.08440828   1.05633962   0.22667991
H    4.42017841   2.62726903  -0.24397990
H    5.79738808   0.76897973  -1.88525939

