%chk=mol_1662.chk
# wB97XD/Def2SVP opt pop=full gfinput

C 5 H 10 N 2

1 2
C    1.819466  -0.077025  -0.034299
N    4.543903   0.068748  -0.299427
C    5.769523   2.400991   0.477477
C    8.438043   2.415580  -0.582697
C    9.809039   0.036510   0.270136
N    8.399663  -2.284339  -0.283988
C    5.988807  -2.074806  -0.478875
H    0.933336   1.764437  -0.358538
H    1.314097  -0.721441   1.864234
H    1.023022  -1.396923  -1.414044
H    4.734690   4.046168  -0.236386
H    5.804974   2.521008   2.546066
H    9.459874   4.101669   0.048982
H    8.367802   2.472045  -2.655746
H   10.196547   0.115330   2.302688
H   11.641015  -0.064288  -0.690411
H    4.863645  -3.789335  -0.855120

