%chk=mol_4738.chk
# wB97XD/Def2SVP opt freq pop=full gfinput

C 5 H 11 N 1 O 1

1 2
C    0.15396994  -1.02917957   0.62897974
C    1.60533941  -1.12297964   0.15687995
N    1.72716939  -2.18087912  -0.85876971
C    2.11577916   0.22692990  -0.39195985
O    1.26414943   0.67168975  -1.45551956
C    1.58711934   1.84909928  -2.06595922
C    2.61778903   2.66878891  -1.82927930
H    0.04396999  -0.24040990   1.38052940
H   -0.16836995  -1.97057927   1.08756959
H   -0.53194982  -0.80804968  -0.19595993
H    2.23369908  -1.40618956   1.00910962
H    1.27095950  -1.85399926  -1.71380937
H    1.21126950  -3.00757885  -0.56158978
H    3.14314866   0.10627996  -0.75832969
H    2.10719919   0.96778959   0.41721985
H    0.85247964   2.06498933  -2.83498883
H    3.36780882   2.47475910  -1.07291961
H    2.73263907   3.57560873  -2.41492891

