%chk=mol_2984.chk
# wB97XD/Def2SVP opt freq pop=full gfinput

C 5 H 8 O 2

1 2
C    0.76574975   0.07428998   0.32672986
C    2.06309915  -0.68162978   0.27494988
C    1.94381928  -2.17488909   0.38684985
C    3.23378897  -0.03934998   0.13759995
O    4.45965815  -0.70578974   0.08957996
C    5.56709766   0.08441997  -0.03752999
O    5.62273788   1.30213940  -0.11803996
H    0.91299969   1.15470958   0.22427991
H    0.26034990  -0.10463996   1.28135943
H    0.10449997  -0.24953991  -0.48364982
H    1.31019950  -2.56456900  -0.41628984
H    1.49225950  -2.44636893   1.34702945
H    2.91022873  -2.68281913   0.31959987
H    3.30742884   1.03928959   0.05724998
H    6.45182753  -0.57158977  -0.05796998

