%chk=mol_3924.chk
# wB97XD/Def2SVP opt freq pop=full gfinput

C 5 H 9 N 1 O 1

1 2
C    0.99231964  -0.01392999   0.03315999
C    2.50736904   0.01858999   0.01900999
C    3.10331869   1.16542947   0.84162968
C    4.46902847   0.63445979   1.23711944
N    4.24431849  -0.77225971   1.37174940
C    3.13068891  -1.19807959   0.67431974
O    2.76843905  -2.35631895   0.57301974
H    0.61818975  -0.84927964  -0.56776983
H    0.57953984   0.91322964  -0.37613988
H    0.60446978  -0.14442995   1.04911959
H    2.87676883   0.06514998  -1.01259959
H    2.50133920   1.34708953   1.74163938
H    3.16378880   2.10324931   0.28141987
H    5.21276808   0.78983968   0.44972983
H    4.83237839   1.05048966   2.17945933
H    4.86497784  -1.43898940   1.81426930

