%chk=mol_5180.chk
# wB97XD/Def2SVP opt pop=full gfinput

C 4 H 8 N 2 O 1

1 2
C    2.023065  -0.987420   0.870502
N    3.427869  -2.644766  -0.862074
C    4.673897  -4.624311   0.645436
N    2.025201  -3.508484  -2.839427
C    3.284193  -3.538342  -4.932072
C    2.003336  -4.445373  -7.279263
O    3.172094  -4.530278  -9.266140
H    1.191000   0.590747  -0.180696
H    3.278524  -0.165937   2.296471
H    0.491726  -2.002637   1.825986
H    5.922307  -3.794154   2.072746
H    5.857017  -5.811532  -0.570187
H    3.292167  -5.845509   1.587483
H    5.267479  -2.941642  -5.164244
H    0.011735  -5.002880  -7.046430

