%chk=mol_2465.chk
# wB97XD/Def2SVP opt pop=full gfinput

C 7 H 6

1 2
C    1.892712  -0.405819   0.005329
C    4.700845  -0.074606   0.005896
C    5.931888   2.150489   0.000000
C    4.603411   4.451477   0.000000
C    3.478873   6.399236   0.000000
C    8.588843   2.150489   0.000000
C   10.837919   2.150489   0.000000
H    1.427046  -2.422062  -0.043577
H    1.035381   0.469238  -1.661750
H    1.048949   0.386543   1.719632
H    5.791841  -1.818200   0.011282
H    2.477885   8.145003  -0.000000
H   12.850365   2.157122  -0.000000

