%chk=mol_2839.chk
# wB97XD/Def2SVP opt freq pop=full gfinput

C 6 H 10 O 1

1 2
C    2.54260921  -0.97887963   1.53033936
C    3.61222863  -0.28223988   0.69967979
C    3.35204864   1.21997952   0.51854980
C    3.42252874   1.97992921   1.82005930
C    2.42027926   2.71827888   2.31544924
C    4.37432861   1.85224938  -0.41503987
O    5.38449764   1.29190958  -0.83366966
H    2.73957896  -2.05503941   1.56972945
H    1.54954934  -0.83206969   1.09401953
H    2.52724910  -0.60619980   2.55903888
H    3.65394878  -0.76299971  -0.28616989
H    4.59268856  -0.44951984   1.16431952
H    2.37405920   1.35551953   0.03993998
H    4.35287809   1.91036928   2.38369894
H    1.46824956   2.81596899   1.80205929
H    2.53039908   3.23812866   3.26296878
H    4.15012836   2.88942885  -0.71975970

