%chk=mol_6979.chk
# wB97XD/Def2SVP opt pop=full gfinput

C 5 H 6 N 2

1 2
C    3.769437  -1.083399  -2.331639
C    4.005955   0.637801  -0.488664
C    6.153288   2.346189  -0.123040
N    6.765635   4.108491  -2.153343
C    5.679855   5.151393   0.176236
C    7.235327   6.536695   1.920340
N    8.441955   7.652673   3.372084
H    2.119195  -2.297000  -2.440090
H    5.226756  -1.326588  -3.756209
H    2.496101   0.757988   0.905651
H    7.768664   1.522836   0.839927
H    5.434494   4.025419  -3.546884
H    3.756454   5.837345   0.002986

