%chk=mol_1746.chk
# wB97XD/Def2SVP opt freq pop=full gfinput

C 6 H 11 N 1

1 2
C    0.94779962   0.07040997   0.08688997
N    2.39007926  -0.09702996  -0.00176000
C    3.07144880   1.19892955  -0.00117000
C    4.57298851   1.02719963  -0.14966995
C    5.16398811   1.24171948  -1.34016955
C    5.40107775   0.67514974   0.99716961
C    4.97558784   0.40284985   2.23689914
H    0.46212983  -0.90939969   0.03490999
H    0.55797982   0.68030977  -0.73519975
H    0.66285980   0.52914977   1.03935957
H    2.62419891  -0.58126980  -0.86779970
H    2.84884906   1.75560939   0.91784966
H    2.69030905   1.81429935  -0.82669967
H    4.58502817   1.51481938  -2.21682906
H    6.23576736   1.13939953  -1.48051953
H    6.47640753   0.62854981   0.82087970
H    3.92539859   0.40223986   2.50942922
H    5.68543768   0.15022995   3.01754880

