%chk=mol_4588.chk
# wB97XD/Def2SVP opt freq pop=full gfinput

C 4 H 10 N 2 O 1

1 2
C    1.08793962  -0.03041999  -0.06087998
C    2.51468897  -0.52010977  -0.27905989
C    2.56476903  -1.56192935  -1.39025950
O    3.34093881   0.58566976  -0.69724977
C    3.91886854   1.34737957   0.26121989
N    3.76919842   1.15435946   1.52856946
N    4.44344854   2.04939914   2.29005909
H    1.05083954   0.72438973   0.73091972
H    0.42479983  -0.85506970   0.21741992
H    0.69503969   0.44565985  -0.96606964
H    2.90808892  -0.97583961   0.63722974
H    2.21602917  -1.14233959  -2.34034920
H    1.95241928  -2.43502903  -1.14512956
H    3.59599853  -1.89396930  -1.55304945
H    4.52635860   2.14443922  -0.19875993
H    4.46715832   1.71416938   3.25725865
H    3.93167853   2.93475890   2.34063911

