%chk=mol_0875.chk
# wB97XD/Def2SVP opt freq pop=full gfinput

C 5 H 8 O 1

1 2
O    1.01122963  -0.05683998   0.65583974
C    2.04864931   0.04289998   0.00151000
C    3.04961896   1.22020948   0.02964999
C    2.48408890   2.65343904  -0.15283994
C    3.54823852   3.13201880   0.85282969
C    3.56464863   1.69727933   1.41327953
H    2.32799911  -0.77178973  -0.68805975
H    3.88328862   1.02846956  -0.66260976
H    1.45418942   2.78244901   0.19984992
H    2.56881905   3.07136869  -1.15948951
H    4.49260807   3.43315887   0.38511986
H    3.22939873   3.91165876   1.54881942
H    4.54755831   1.32045949   1.70839930
H    2.86066890   1.53788936   2.23834920

