%chk=mol_2530.chk
# wB97XD/Def2SVP opt freq pop=full gfinput

C 6 H 8 O 1

1 2
C    1.09264958   0.09147996   0.17577994
C    2.34022903  -0.11701996  -0.25077993
O    2.69007921  -1.36548948  -0.76236969
C    4.06921864  -1.26476955  -1.18801963
C    4.56098843   0.11670996  -0.89149964
C    3.99216843   1.33304954  -1.57393944
C    3.42674851   0.85804969  -0.26608992
H    0.78497970   1.05442953   0.56583977
H    0.35567987  -0.70296973   0.13461994
H    4.64745855  -2.01563931  -0.64011973
H    4.12101841  -1.48731947  -2.25855899
H    5.54153776   0.16071993  -0.44283983
H    4.58148861   2.24256921  -1.56662941
H    3.40158868   1.19799960  -2.47332907
H    3.61825871   1.41828942   0.63967973

