%chk=mol_6257.chk
# wB97XD/Def2SVP opt freq pop=full gfinput

C 4 H 4 N 2 O 1

1 2
O    1.96522927  -0.66485977  -0.74536973
C    2.27217913   0.31081989  -0.06263998
C    1.74981940   0.41491982   1.29806948
N    1.36011946   0.54404980   2.38690925
N    3.10752892   1.31927955  -0.55860978
C    4.10135841   1.97973919   0.23633991
C    2.91392899   2.71147895  -0.27548990
H    5.04952812   2.09548926  -0.27249992
H    4.15320873   1.71231925   1.28311944
H    2.11251926   2.96978879   0.40348986
H    3.02200866   3.34478855  -1.14645946

