%chk=mol_5007.chk
# wB97XD/Def2SVP opt freq pop=full gfinput

C 4 H 5 N 1 O 2

1 2
C    1.01744962   0.05949998  -0.00857000
N    2.38599896   0.00205000   0.44335985
O    3.15665889   1.11553955   0.00171000
C    4.40615845   0.57456976  -0.16558993
C    4.51282835  -0.73699975  -0.00303000
C    3.13958883  -1.14739954   0.27041993
O    2.76854897  -2.30901909   0.28534988
H    0.57529974   1.00897956   0.30230987
H    0.45770982  -0.77443969   0.42323983
H    0.99324965  -0.02421999  -1.09906960
H    5.17613840   1.28285956  -0.41852984
H    5.35811806  -1.38893950  -0.10163996

