%chk=mol_2278.chk
# wB97XD/Def2SVP opt freq pop=full gfinput

C 6 H 8 O 1

1 2
C    1.11759961   0.18772994  -0.08090997
C    2.56504893  -0.08235997  -0.01593999
C    3.31440878  -1.13860965  -0.35747987
C    4.66838837  -0.67919976   0.05197998
C    4.80684805   0.81262970  -0.45090985
C    3.58551884   0.84454972   0.55041975
O    4.50559807  -0.01200000   1.41439950
H    0.56280982  -0.70198971  -0.39274985
H    0.91061968   0.98837966  -0.79690969
H    0.74042976   0.49464983   0.89941967
H    3.02529883  -2.08203936  -0.78805965
H    5.51909781  -1.35680950  -0.01013000
H    4.59460831   1.00754964  -1.50495946
H    5.70635796   1.34887958  -0.13394995
H    3.28689885   1.78231931   1.01733959

