%chk=mol_7035.chk
# wB97XD/Def2SVP opt pop=full gfinput

C 6 H 13 N 1

1 2
C    2.205386   0.299918   0.324466
C    5.028051  -0.017839  -0.198497
C    5.436647  -1.337284  -2.735039
C    6.336063   2.510671  -0.187877
N    7.144412   3.645603   2.201701
C    9.099484   2.710529   0.497943
C   10.761121   4.557698  -0.825905
H    1.894110   1.201185   2.161941
H    1.246728  -1.533758   0.343250
H    1.301322   1.485514  -1.112916
H    5.823040  -1.230117   1.285127
H    4.666320  -0.219019  -4.299108
H    4.523135  -3.193977  -2.758528
H    7.455461  -1.614166  -3.102496
H    5.579435   3.818985  -1.575087
H    6.880361   2.432040   3.679353
H   10.111735   1.031772   1.090013
H    9.749399   6.281336  -1.362228
H   11.533604   3.706792  -2.545442
H   12.344692   5.093625   0.392024

