%chk=mol_3935.chk
# wB97XD/Def2SVP opt freq pop=full gfinput

C 5 H 7 N 1 O 1

1 2
C    0.95219964   0.02931999   0.06393997
C    2.44595909   0.07285997   0.02366999
C    3.13717890   1.21422946   0.11991996
C    4.59304810   1.06747961  -0.06912997
N    5.26839828  -0.03193999   0.03783999
O    4.48942852  -1.12567949   0.49441984
C    3.19643879  -1.22250950  -0.12234996
H    0.58803976  -0.96472967   0.34900987
H    0.53872979   0.27055991  -0.91910970
H    0.55602980   0.74238974   0.79735970
H    2.70600891   2.20036912   0.21714991
H    5.12326813   1.98672926  -0.36413988
H    2.67147899  -2.03045917   0.39633986
H    3.30853868  -1.50470948  -1.17501950

