%chk=mol_3222.chk
# wB97XD/Def2SVP opt freq pop=full gfinput

C 6 H 12 O 1

1 2
C    2.01369929   4.13334846  -0.49268982
C    2.60174894   2.75350881  -0.27689990
O    3.97912860   2.78629899  -0.64160979
C    4.59353828   1.50277936  -0.49962980
C    6.07003784   1.58726931  -0.89304966
C    6.25771809   1.90818930  -2.35139918
C    6.89882755   1.12332952  -3.22488880
H    0.97290963   4.16986847  -0.15938994
H    2.05248928   4.40579844  -1.55238938
H    2.58817887   4.89028835   0.05218998
H    2.06936908   2.02225924  -0.89461964
H    2.50953913   2.46955895   0.77663970
H    4.06996870   0.76924968  -1.12422967
H    4.52050829   1.18995953   0.54796982
H    6.55924749   0.63810974  -0.64425975
H    6.56111765   2.37483907  -0.30847988
H    5.84228754   2.85547900  -2.69188905
H    7.33384705   0.17393993  -2.93128896
H    7.00323725   1.42359948  -4.26367807

