%chk=mol_1415.chk
# wB97XD/Def2SVP opt pop=full gfinput

C 5 H 12 N 2

1 2
C    1.633555  -0.452854  -0.390720
C    4.513176  -0.358349  -0.274728
C    5.663169  -2.336854  -2.033761
N    5.395773   2.133444  -1.036912
C    5.169006   4.293873   0.377492
C    5.193364   6.778353  -1.031167
N    4.955485   4.375207   2.801500
H    0.791455   0.909317   0.921449
H    0.934356  -2.333793   0.115651
H    0.940365   0.003496  -2.288931
H    5.141057  -0.789735   1.649825
H    5.109328  -2.014656  -4.003574
H    5.054904  -4.241453  -1.499460
H    7.731474  -2.278840  -1.950065
H    5.345109   2.415051  -2.935803
H    7.021448   7.016307  -1.964729
H    4.879689   8.359714   0.261047
H    3.701085   6.770095  -2.460820
H    5.031830   2.593725   3.528440

