%chk=mol_6007.chk
# wB97XD/Def2SVP opt freq pop=full gfinput

C 4 H 4 N 2 O 1

1 2
O    1.04948962  -0.08092997   0.13994995
C    2.40631890   0.02237999   0.03595999
C    3.02196884   1.24953949  -0.03173999
C    4.39257860   1.20995951  -0.13813995
N    5.10234785   0.06815998  -0.17480995
C    4.38527822  -1.06435966  -0.09916996
N    3.05356884  -1.14775956   0.00649000
H    0.67125976   0.80932969   0.12344995
H    2.48574901   2.18538904  -0.00433000
H    4.97866821   2.12208915  -0.19894992
H    4.93540812  -1.99860930  -0.12651995

