%chk=mol_1032.chk
# wB97XD/Def2SVP opt pop=full gfinput

C 4 H 7 N 1 O 1

1 2
C    2.232863  -0.065385   0.493181
N    4.944280  -0.105409   0.560965
C    6.586073   2.020344  -0.144621
C    8.536346   0.037511  -1.003029
C    6.319490  -1.828915  -0.779833
O    5.799796  -3.902114  -1.577978
H    1.506962  -1.957794   0.897091
H    1.599464   0.497943  -1.392747
H    1.543679   1.271691   1.906885
H    7.151990   3.182374   1.465048
H    5.795998   3.197265  -1.650733
H    9.262266   0.282571  -2.918380
H   10.075736  -0.340510   0.321216

