%chk=mol_5847.chk
# wB97XD/Def2SVP opt freq pop=full gfinput

C 4 H 7 N 1 O 2

1 2
N    0.91029966   0.09031996  -0.31321988
C    2.04554915   0.13710995   0.45099983
O    2.21661901  -0.71967971   1.31681943
C    3.01383877   1.28009963   0.11178996
C    2.53216887   2.72212887   0.29567987
O    3.75579858   3.07906890   0.98405963
C    4.05694866   1.67043936   1.16648960
H    0.72110975   0.72284973  -1.07734966
H    0.26196989  -0.66733974  -0.13730995
H    3.47727871   1.12256956  -0.87190968
H    1.65958941   2.86441875   0.94126964
H    2.40383911   3.29042864  -0.62971979
H    5.09321833   1.43859947   0.90568966
H    3.85480857   1.35675943   2.19556904

