%chk=mol_1728.chk
# wB97XD/Def2SVP opt pop=full gfinput

C 6 H 13 N 1

1 2
C    2.177645  -0.538704  -0.081504
N    4.928349  -0.427456   0.228298
C    6.102625  -2.521254  -1.148028
C    5.876916   2.052545  -0.628447
C    8.678851   2.516284   0.005745
C    9.515867   5.115035  -0.793175
C   10.449959   6.856814   0.788658
H    1.257216   0.945392   1.030524
H    1.436985  -2.340993   0.618545
H    1.604737  -0.323238  -2.061049
H    5.301551  -4.331819  -0.540745
H    8.128373  -2.638171  -0.749182
H    5.840803  -2.354278  -3.196396
H    4.775281   3.541725   0.310652
H    5.566718   2.281958  -2.667840
H    9.882757   1.150673  -0.978859
H    8.984098   2.244390   2.038769
H    9.366258   5.565659  -2.794206
H   10.652745   6.490756   2.796209
H   11.039704   8.696010   0.095941

