%chk=mol_4402.chk
# wB97XD/Def2SVP opt freq pop=full gfinput

C 5 H 11 N 1 O 1

1 2
C    1.37270939  -0.60566980   0.49179980
C    2.87384892  -0.54636979   0.35910988
C    3.62008858  -1.62084937   0.67232978
C    3.41319871   0.77198970  -0.15707995
O    2.98424888   1.80669928   0.73552972
C    4.94966793   0.89461964  -0.31692991
N    5.32265806   2.26919913  -0.70417970
H    0.89729971  -0.37236986  -0.46677980
H    1.02148962   0.11218996   1.24000955
H    1.02383959  -1.59781945   0.79853970
H    3.16140890  -2.53648901   1.03614962
H    4.70129824  -1.63009942   0.59327972
H    2.94899893   0.97620964  -1.13043964
H    3.61797857   2.53669906   0.57842982
H    5.32349825   0.18602993  -1.06354964
H    5.44343805   0.68715972   0.63918978
H    4.97210836   2.45631909  -1.64505935
H    6.33994770   2.32292914  -0.77320975

