%chk=mol_2043.chk
# wB97XD/Def2SVP opt pop=full gfinput

C 5 H 8 N 2

1 2
N    1.920434  -0.041706   0.104199
C    4.667624   0.000000   0.000000
C    5.578509   2.572238   0.000000
C    6.329260   4.692322   0.000000
C    7.464815   7.145205   0.114744
C    7.385466   8.820788  -2.183768
N    5.848173   9.378749   0.030689
H    1.303514  -1.842351  -0.160627
H    1.225865   0.998550  -1.359847
H    5.301664  -0.984623  -1.706498
H    5.419961  -1.037271   1.623974
H    9.122218   7.293776   1.316251
H    6.363294   8.188410  -3.839092
H    8.977654  10.053003  -2.542872
H    6.620542  10.791471   1.091997

