%chk=mol_6561.chk
# wB97XD/Def2SVP opt freq pop=full gfinput

C 3 H 8 O 3 S 1

1 2
C    1.29247940  -0.37159985  -0.11361995
C    2.77251911  -0.10729996   0.10607996
C    3.14098883   1.32495952  -0.25638989
S    4.88194847   1.63121939   0.01328999
O    4.92104816   3.15659881  -0.51424980
O    5.16716814   1.64273930   1.42854941
O    5.66593790   0.87496966  -0.93619967
H    1.04984963  -1.40726948   0.14404994
H    1.01567960  -0.20808993  -1.16006947
H    0.67984974   0.28632990   0.51103979
H    3.35916877  -0.80898964  -0.49820980
H    3.02479887  -0.30641988   1.15408945
H    2.58687925   2.03974938   0.36030987
H    2.93565893   1.52422941  -1.31302953
H    5.61488771   3.21665883  -1.20614946

