%chk=mol_1532.chk
# wB97XD/Def2SVP opt pop=full gfinput

C 7 H 12

1 2
C    1.704968  -0.079350   0.436659
C    4.595020   0.006482   0.152444
C    5.351856   2.469683  -1.200770
C    7.487946   2.385250  -3.137399
C    8.268591  -0.160362  -4.040877
C    7.408842  -2.330939  -3.077551
C    5.532835  -2.501034  -0.988327
H    1.001914   1.610481   1.403462
H    1.111802  -1.733880   1.527088
H    0.790094  -0.180979  -1.421622
H    5.371169   0.114687   2.076525
H    5.868771   3.861164   0.255718
H    3.694074   3.302391  -2.125923
H    9.154627   3.336992  -2.366485
H    6.910615   3.505461  -4.789247
H    9.634296  -0.222629  -5.572084
H    8.096022  -4.106942  -3.850941
H    3.939342  -3.636306  -1.671179
H    6.392622  -3.617711   0.536455

