%chk=mol_6378.chk
# wB97XD/Def2SVP opt freq pop=full gfinput

C 4 H 5 N 1 O 2

1 2
O    1.18393958  -0.50332981   0.19748993
N    2.57894921  -0.41766983   0.10634996
C    2.99457884   0.81460971   0.08107997
C    2.14215922   2.04287910   0.13150994
C    2.57908893   3.29988885  -0.01336999
C    4.49796820   0.96239966  -0.03997998
O    5.13735819   1.74420929   0.64629978
H    1.03239965  -1.46667945   0.24296992
H    1.08242953   1.86940932   0.29002991
H    3.62171865   3.55566859  -0.17172994
H    1.87907922   4.12870836   0.03966998
H    4.95582819   0.28040990  -0.77344972

