%chk=mol_4269.chk
# wB97XD/Def2SVP opt freq pop=full gfinput

C 5 H 11 N 1 O 1

1 2
C    2.63194895  -1.01710963  -0.51843983
C    2.10882926   0.35484985  -0.12413996
C    3.21573877   1.25816941   0.32851988
N    3.75093842   2.28402925  -0.56947982
C    2.94153881   2.72352886   0.57524979
C    3.60623860   3.44062853   1.71296930
O    5.01338816   3.22359872   1.69328940
H    1.81058931  -1.65446937  -0.85882968
H    3.11456895  -1.50909936   0.33242989
H    3.36853886  -0.94113964  -1.32427955
H    1.38856947   0.24064992   0.69426972
H    1.56382942   0.79096967  -0.97028965
H    3.92627835   0.76634973   0.98543960
H    3.20908856   2.33665919  -1.43512952
H    1.95181930   3.11064887   0.36451986
H    3.21280885   3.09116864   2.67191911
H    3.42846870   4.51726818   1.63493943
H    5.21984816   3.00819898   0.76044971

