%chk=mol_4173.chk
# wB97XD/Def2SVP opt freq pop=full gfinput

C 4 H 7 N 1 O 2

1 2
C    1.05646956   0.02989999   0.11699996
C    2.54228902   0.04721998  -0.12344995
N    3.13866878   1.19865954  -0.20952992
O    4.52692842   1.12432957  -0.48392981
C    5.16859818  -0.02378999   0.07167997
O    4.64283800  -1.22401953  -0.47733980
C    3.26179862  -1.29075956  -0.19730993
H    0.68173975  -0.99621964   0.14394996
H    0.55244976   0.57299978  -0.68753976
H    0.83797967   0.51591980   1.07198966
H    6.23016787   0.02930999  -0.18518993
H    5.08325815  -0.02033999   1.16537952
H    3.12682891  -1.79758942   0.76474971
H    2.78375888  -1.90557933  -0.96636963

