%chk=mol_6786.chk
# wB97XD/Def2SVP opt pop=full gfinput

C 7 H 10

1 2
C    3.981766  -0.366040  -0.094883
C    1.462421  -1.533116   0.421541
C   -0.754152  -2.598506  -0.981373
C   -3.074679  -0.947320  -0.448451
C   -2.854412   1.404388   0.540443
C   -0.268133   2.632672   0.983943
C    1.677529   1.214962  -0.506295
H    5.015768  -1.024874  -1.736961
H    5.183481   0.101724   1.497721
H    1.194193  -1.922248   2.429829
H   -1.129716  -4.517220  -0.300807
H   -0.411620  -2.705880  -3.020312
H   -4.923549  -1.754894  -0.818384
H   -4.523626   2.515490   0.972075
H    0.165521   2.664608   3.008255
H   -0.336504   4.592545   0.320630
H    1.394864   1.652017  -2.502716

