%chk=mol_3615.chk
# wB97XD/Def2SVP opt freq pop=full gfinput

C 5 H 8 O 2

1 2
O    1.03338957   0.05733998  -0.12481996
C    2.44329906  -0.02830999   0.01661999
C    2.98352909   1.07014966   0.91773963
O    4.22792816   0.59015977   1.44814944
C    4.11136866  -0.79164970   1.43909943
C    5.05375814  -1.56295943   1.98887932
C    2.88373876  -1.28063953   0.74408966
H    0.74356967  -0.71517974  -0.64006978
H    2.90806890   0.02985999  -0.97533965
H    2.30298901   1.29869950   1.74725938
H    3.15702868   1.99803925   0.36308986
H    4.97781801  -2.64402890   1.98243928
H    5.91922760  -1.11681950   2.46783900
H    3.08864903  -2.09478927   0.04247998
H    2.12945914  -1.61727941   1.46275938

