%chk=mol_3962.chk
# wB97XD/Def2SVP opt pop=full gfinput

C 4 H 6 N 2 O 1

1 2
C    1.876895  -0.026891   0.121113
C    4.689355   0.053763   0.126498
C    6.131708   2.131328  -0.023603
C    8.753967   1.181986  -0.049322
O   10.644544   2.486955   0.063722
N    8.609119  -1.428179  -0.173382
N    6.105346  -2.151548   0.243869
H    1.062480   1.872964   0.027458
H    1.177507  -0.935528   1.842729
H    1.187712  -1.096703  -1.509853
H    5.614641   4.089405  -0.125705
H   10.062754  -2.500523   0.463342
H    5.451236  -3.522676  -0.950532

