%chk=mol_6753.chk
# wB97XD/Def2SVP opt freq pop=full gfinput

C 7 H 10

1 2
C    0.86255968  -1.23842955   0.86048967
C    1.12908959  -0.41670984  -0.37351984
C    0.99380964   1.08035958  -0.40351987
C   -0.24842991   1.63018942   0.31371990
C   -1.47916937   0.78296971   0.14430995
C   -1.39305949  -0.52796978  -0.12835994
C   -0.12533996  -1.25057948  -0.28255987
H    1.46249950  -2.12891912   1.01425970
H    0.59819978  -0.73358977   1.78250933
H    1.91762924  -0.75850976  -1.03522968
H    1.89456940   1.53958952   0.01940999
H    0.95196962   1.38841951  -1.45622945
H   -0.04567998   1.72576928   1.38745952
H   -0.44921982   2.64153886  -0.05843998
H   -2.44882894   1.25322962   0.27795988
H   -2.30858898  -1.10671961  -0.22905992
H   -0.17535993  -2.14520907  -0.89433962

