%chk=mol_4417.chk
# wB97XD/Def2SVP opt freq pop=full gfinput

C 5 H 5 N 1 O 1

1 2
C    0.99999964   0.00000000   0.00000000
C    2.44399905   0.00000000   0.00000000
C    3.63415861   0.00000000   0.00000000
C    5.07815790   0.00000000   0.00000000
O    5.54625797  -0.72047973  -1.14561963
C    5.56017780   1.36116946   0.00000000
N    5.94438744   2.44615912   0.00000000
H    0.60601974   1.02088964   0.01165000
H    0.60592973  -0.52051979   0.87824970
H    0.60597974  -0.50029981  -0.88994968
H    5.45546818  -0.53062981   0.88008970
H    5.16817808  -0.27713990  -1.92530918

