%chk=mol_4790.chk
# wB97XD/Def2SVP opt pop=full gfinput

C 5 H 9 N 1 O 1

1 2
C    1.859547   0.241620  -0.720326
C    4.598876   0.093371   0.011490
N    5.813421  -1.954468   0.595774
O    4.223141  -4.065368   0.491839
C    6.058519   2.487692   0.032654
C    5.289476   4.630415   1.756500
C    7.662027   3.179445   2.292427
H    1.342764   2.166363  -1.263773
H    0.689334  -0.339546   0.880688
H    1.496965  -1.014197  -2.321018
H    5.361588  -5.435589   0.964743
H    6.813805   3.000772  -1.805123
H    3.705942   4.358313   3.027681
H    5.473781   6.542610   1.045548
H    9.460763   4.092372   1.938330
H    7.674990   1.908170   3.900319

