%chk=mol_3171.chk
# wB97XD/Def2SVP opt freq pop=full gfinput

C 6 H 8 O 1

1 2
C    3.16444874  -0.41112986   0.02320999
C    4.35266829   0.07273997  -0.34369987
O    4.76157808   1.33699954   0.00331000
C    5.86729765   1.91223919  -0.60405976
C    6.14917755   1.78998923  -1.91119921
C    6.67020750   2.75998902   0.25810990
C    6.48007774   2.93746901   1.57341945
H    2.86382890  -1.41653955  -0.24833991
H    2.47273922   0.19336993   0.60022980
H    5.07390833  -0.50437981  -0.90587962
H    5.51773787   1.20965958  -2.57489896
H    7.00376749   2.28487921  -2.36099911
H    7.49521685   3.29228878  -0.21202992
H    5.68072748   2.43928909   2.11306906
H    7.13025713   3.59401870   2.14163923

