%chk=mol_4384.chk
# wB97XD/Def2SVP opt freq pop=full gfinput

C 4 H 6 N 2 O 1

1 2
C    1.05234957  -0.02901999  -0.01075000
C    2.55843925   0.08483997   0.01162000
C    3.35143876  -1.20295954  -0.02774999
C    3.51894879  -1.64654946  -1.41278946
N    3.63247848  -2.02725935  -2.50246906
N    3.07456875   1.27858949   0.03374999
O    4.47107840   1.23642945   0.01657999
H    0.58872980   0.95933962   0.05246998
H    0.72160977  -0.63180977   0.83931971
H    0.73630977  -0.51194984  -0.93916965
H    2.80492902  -1.96097922   0.54433978
H    4.32087803  -1.08173954   0.46353981
H    4.71036816   2.18318915  -0.01512999

