%chk=mol_6076.chk
# wB97XD/Def2SVP opt pop=full gfinput

C 4 H 6 N 2 O 1

1 2
O    2.640647   0.350884   1.475668
C    4.569849  -0.141597   0.316718
N    5.321544  -2.472877  -0.550043
C    7.642487  -2.409439  -1.984099
C    8.505147   0.295440  -1.831485
N    7.024433   2.320244  -2.984218
C    6.569973   1.722296  -0.309613
H    4.136232  -3.965949  -0.443670
H    8.990995  -3.702616  -1.102221
H    7.258268  -3.000809  -3.926492
H   10.498752   0.583151  -1.518716
H    8.042466   3.952381  -3.123509
H    7.166560   3.055800   1.115146

