%chk=mol_5867.chk
# wB97XD/Def2SVP opt freq pop=full gfinput

C 4 H 5 N 1 O 2

1 2
N    1.31226957  -0.25988990   0.04570998
C    2.66888905  -0.20069991   0.04184998
O    3.36816859  -1.20198953   0.08156997
C    3.20866871   1.17157960  -0.01253000
C    4.53624821   1.34516954  -0.00446000
C    5.09555817   2.71041894  -0.05747998
O    4.40345860   3.71922851  -0.11176996
H    0.71101969   0.55056977   0.01845999
H    0.88539970  -1.17594957   0.08460997
H    2.51933908   2.00536919  -0.05778998
H    5.23952818   0.52248979   0.04057999
H    6.19697762   2.75671911  -0.04395999

