%chk=mol_5141.chk
# wB97XD/Def2SVP opt freq pop=full gfinput

C 4 H 8 N 2 O 1

1 2
C    0.92685968   0.41556984   0.08219997
N    2.36572933   0.66136974  -0.00630000
C    3.19973874  -0.54621977  -0.03686998
C    3.54292870  -0.99798965   1.36528957
O    3.20570874  -2.08507919   1.82903934
C    2.86179876   1.86890924   0.40977985
N    4.08503866   2.25399923   0.47018981
H    0.36391988   1.29733944  -0.24198991
H    0.64149976   0.17751993   1.11212957
H    0.62730980  -0.41394985  -0.56661981
H    4.13134813  -0.36509988  -0.58445978
H    2.68450880  -1.36426950  -0.55379981
H    4.14615822  -0.29260990   1.96208930
H    2.07615924   2.57527900   0.73156971
H    4.71636820   1.54806948   0.09485997

