%chk=mol_6355.chk
# wB97XD/Def2SVP opt freq pop=full gfinput

C 4 H 8 N 2 O 1

1 2
O    1.43556941   0.48538980   1.79342926
N    2.71877909   0.41693985   1.23581946
C    2.81142902   1.30675948   0.30069989
C    4.07864857   1.47290945  -0.48879981
C    4.71417809   2.80316901  -0.22869992
C    5.40876818   3.54454875  -1.34282947
N    4.12805843   4.00673866  -0.81450969
H    1.45943952  -0.22213992   2.46390915
H    1.97134924   1.97698927   0.04611998
H    3.82299852   1.35345948  -1.54747939
H    4.78299809   0.67614973  -0.22287992
H    5.10778809   2.89118886   0.77798969
H    5.38187790   3.13686895  -2.34590912
H    6.27694750   4.14708853  -1.10743964
H    4.25896835   4.81268835  -0.19824992

