%chk=mol_3278.chk
# wB97XD/Def2SVP opt pop=full gfinput

C 5 H 8 O 2

1 2
C    4.640355  -2.120707  -1.469942
C    4.937023  -0.233929   0.639710
O    4.266605  -0.722461   2.820038
C    6.176702   2.305466  -0.012775
O    5.663358   4.124327   1.895471
C    8.986101   1.998083  -0.145641
C   10.384442   2.353503  -2.228648
H    3.778545  -1.204965  -3.109828
H    3.395932  -3.654504  -0.855309
H    6.482630  -2.903772  -1.977466
H    5.370243   3.010938  -1.781861
H    5.315610   3.160094   3.433481
H    9.935859   1.477029   1.603924
H    9.548786   2.916792  -4.015536
H   12.424193   2.127057  -2.168858

