%chk=mol_2592.chk
# wB97XD/Def2SVP opt freq pop=full gfinput

C 6 H 12 O 1

1 2
C    3.01166892  -1.03313959  -0.70814973
C    2.38649917   0.14050995   0.02916999
C    3.32112885   1.31096959   0.09400997
C    3.44915867   2.33234906  -1.01690960
C    2.66284895   2.25850916  -2.28130913
C    2.76226902   2.70016909   0.27282989
O    3.49375868   3.56445861   1.15236962
H    2.32313919  -1.88335931  -0.72378969
H    3.93886852  -1.35242951  -0.22158992
H    3.25107884  -0.76716971  -1.74212933
H    2.14392924  -0.16970994   1.05278957
H    1.43727946   0.40685984  -0.44883984
H    4.22042847   1.06014955   0.64730972
H    4.43904829   2.73419905  -1.20355952
H    1.61743939   1.98212934  -2.11524916
H    3.10906887   1.52604938  -2.96084905
H    2.67234898   3.23219872  -2.78199887
H    1.68296945   2.81952882   0.25867990
H    4.45308828   3.41654873   1.10317957

