%chk=mol_3303.chk
# wB97XD/Def2SVP opt freq pop=full gfinput

C 5 H 10 O 2

1 2
C    1.64473927  -0.44995981  -0.84251970
O    1.61088932   0.90065968  -0.40356985
C    2.92020893   1.43837941  -0.13617995
C    3.41096878   2.47426891  -1.11116958
C    2.92874885   2.89355898   0.25280991
C    3.88292837   3.37791872   1.28881955
O    3.96406865   4.79438829   1.22395957
H    0.62501973  -0.76165968  -1.08361959
H    2.03052926  -1.09378958  -0.04641998
H    2.26523900  -0.54563981  -1.73852932
H    3.65634871   0.79463971   0.33722988
H    2.78202891   2.70638895  -1.96303928
H    4.47294807   2.49958920  -1.32400954
H    1.96635926   3.38700867   0.33068988
H    4.88943815   2.96769905   1.15364957
H    3.53231883   3.10134888   2.28768921
H    4.15159845   5.02542782   0.29873991

