%chk=mol_5292.chk
# wB97XD/Def2SVP opt freq pop=full gfinput

C 4 H 5 N 1 O 2

1 2
C    3.28548884  -1.03200960   0.52407980
O    2.42093897   0.06587997   0.26008990
C    3.00755882   1.25402951   0.13638996
C    2.53938913   2.52199888  -0.11208995
N    3.58496857   3.41267872  -0.14035994
C    4.63172817   2.65271902   0.09009996
O    4.36641836   1.32907951   0.26922989
H    2.67226911  -1.93463933   0.60021979
H    3.81089854  -0.89761966   1.47586942
H    3.99929857  -1.17497957  -0.29449987
H    1.51664937   2.83185911  -0.26946989
H    5.66963768   2.94966888   0.15402994

