%chk=mol_2876.chk
# wB97XD/Def2SVP opt pop=full gfinput

C 7 H 10

1 2
C    1.529299   0.069202   0.133377
C    4.352020  -0.298766   0.068767
C    5.181648  -3.003587   0.334311
C    5.912575   1.692590  -0.235649
C    8.750850   1.709503  -0.289638
C    9.639304   2.211017  -2.873121
C   10.374331   2.617025  -4.979202
H    0.990387   2.058327  -0.054915
H    0.759330  -0.622136   1.925234
H    0.634362  -0.973001  -1.413950
H    4.229793  -4.179829  -1.078259
H    4.688732  -3.716543   2.212964
H    7.210363  -3.271588   0.067747
H    5.073971   3.564118  -0.435091
H    9.564566  -0.054292   0.412962
H    9.422174   3.198418   0.984869
H   11.020184   2.974316  -6.854434

