%chk=mol_5086.chk
# wB97XD/Def2SVP opt freq pop=full gfinput

C 5 H 9 N 1 O 1

1 2
C    1.01415968  -0.02368999  -0.06337997
N    2.46866894   0.01089000  -0.04241998
C    2.96069884   1.38567948   0.00000000
C    4.40469837   1.38567948   0.00000000
C    5.59485769   1.38567948   0.00000000
C    7.03885746   1.38567948   0.00000000
O    7.52659750   2.70482898  -0.20538992
H    0.67473972  -1.06391954  -0.08752997
H    0.61198980   0.48175985  -0.94741964
H    0.59330976   0.43820983   0.83566964
H    2.83194876  -0.44154984  -0.87963963
H    2.59344912   1.88682938   0.90303963
H    2.59079909   1.94845927  -0.86514968
H    7.43817711   0.74814969  -0.79454970
H    7.43701744   1.02412963   0.95238966
H    7.04983711   3.06041884  -0.97405958

