%chk=mol_0905.chk
# wB97XD/Def2SVP opt freq pop=full gfinput

C 4 H 4 O 2

1 2
O    1.25504947  -0.45713985  -0.34531987
C    2.41294909  -0.22016992  -0.02718999
C    2.97987866   1.13163960  -0.18319993
C    4.24723816   1.36064947   0.17274994
C    4.81348848   2.71303892   0.01627999
O    5.97129774   2.94987893   0.33448988
H    3.08313870  -0.99254960   0.38556987
H    2.31507897   1.88399935  -0.59012979
H    4.91251802   0.60819978   0.57984978
H    4.14435863   3.48593879  -0.39724985

