%chk=mol_4300.chk
# wB97XD/Def2SVP opt freq pop=full gfinput

C 5 H 5 N 1 O 1

1 2
C    1.85329926  -0.46598983  -1.16348958
C    2.19182897   0.21100992  -0.05857998
C    3.29871869   1.16864955   0.05884998
O    3.67956853   2.04818916  -1.01146960
C    2.97130895   2.64526916   0.08418997
C    3.76555848   3.52182889   0.88886964
N    4.39257860   4.22709846   1.56456935
H    1.02218962  -1.16401947  -1.16141963
H    2.40105915  -0.33620986  -2.09268928
H    1.61152935   0.03467999   0.84566969
H    4.10640860   0.81363970   0.69334972
H    1.95266926   2.95821881  -0.10669996

