%chk=mol_0479.chk
# wB97XD/Def2SVP opt pop=full gfinput

C 5 H 13 N 1

1 2
C    1.849135  -0.152274   0.003080
N    4.581868   0.149515  -0.062493
C    5.519834   2.772455  -0.055955
C    4.737695   4.202108  -2.463031
C    4.641111   4.237050   2.294014
C    8.424437   2.595482   0.008031
H    1.398303  -2.172373  -0.011584
H    0.925588   0.690733  -1.642512
H    1.021529   0.624498   1.730271
H    5.272506  -0.771632  -1.608497
H    5.292499   3.166614  -4.169341
H    5.644461   6.063205  -2.544932
H    2.693597   4.517523  -2.546028
H    5.096081   3.209700   4.034698
H    2.600868   4.587197   2.272717
H    5.570837   6.085731   2.404620
H    9.084103   1.591282   1.697598
H    9.289459   4.478632   0.028270
H    9.163396   1.593644  -1.649788

