%chk=mol_6899.chk
# wB97XD/Def2SVP opt pop=full gfinput

C 6 H 9 N 1

1 2
C    5.830051  -2.193216  -0.921468
C    4.640752   0.113006   0.310803
C    6.420666   2.316445   0.319005
C    6.607389   4.029066  -1.944434
C    5.387779   4.980392   0.455878
C    6.689536   6.825332   1.962424
N    7.740450   8.315343   3.179067
H    4.513441  -3.787559  -0.889570
H    7.555446  -2.758169   0.071394
H    6.331792  -1.805577  -2.891092
H    4.129354  -0.342475   2.265215
H    2.884402   0.584832  -0.682040
H    8.148102   1.900346   1.346392
H    5.391313   3.671114  -3.554688
H    8.464631   4.732328  -2.456908
H    3.349388   5.203966   0.417195

