%chk=mol_0238.chk
# wB97XD/Def2SVP opt freq pop=full gfinput

C 6 H 12

1 2
C    3.06158900  -1.16738951  -0.49670979
C    2.47282887   0.06224998   0.17541994
C    3.44083881   1.20655954   0.16824995
C    3.53331876   2.12223911  -1.02703953
C    2.92876887   2.62360907   0.25922990
C    3.65267873   3.63020849   1.08654964
H    2.34656930  -1.99546933  -0.47148982
H    3.97790837  -1.49037945   0.00863000
H    3.31127882  -0.96121967  -1.54278946
H    2.21731901  -0.17962992   1.21319950
H    1.53925943   0.33641988  -0.32982990
H    4.35953808   0.96490961   0.69287974
H    2.86732888   1.95173931  -1.86568928
H    4.51629829   2.47883892  -1.31442952
H    1.85652924   2.78545904   0.28088990
H    4.73688793   3.48020887   1.06308961
H    3.32259870   3.56758857   2.12789917
H    3.44049859   4.63959837   0.72127968

