%chk=mol_5056.chk
# wB97XD/Def2SVP opt pop=full gfinput

C 5 H 11 N 1 O 1

1 2
C    1.422529  -1.068054   0.005688
N    4.033526  -0.382745  -0.612196
C    5.271221  -2.501449  -1.889877
C    4.049815   1.921341  -2.169972
C    6.671848   2.936351  -2.489714
C    8.115675   2.617479  -4.924532
O    6.869060   4.941464  -4.309747
H    0.491971   0.459808   1.050196
H    1.376514  -2.733772   1.236486
H    0.300807  -1.478106  -1.687620
H    5.180627  -4.208628  -0.719211
H    7.283949  -2.121369  -2.185941
H    4.404593  -2.927261  -3.723479
H    2.951941   3.398805  -1.213242
H    3.143805   1.588466  -4.009054
H    7.685365   3.165405  -0.729699
H    7.306116   1.475347  -6.415488
H   10.159111   2.588452  -4.836811

