%chk=mol_4556.chk
# wB97XD/Def2SVP opt pop=full gfinput

C 5 H 5 N 1 O 1

1 2
C    1.889726   0.000000   0.000000
C    4.138803   0.000000   0.000000
C    6.867567   0.000000   0.000000
O    7.881178   1.503674   2.009875
C    7.255377   4.143565   1.880164
C    8.299979   5.432717  -0.352717
N    9.086729   6.447103  -2.130742
H   -0.124892  -0.011263  -0.001266
H    7.637725   0.634608  -1.812606
H    7.569865  -1.924403   0.293682
H    8.047531   5.011346   3.584300
H    5.203493   4.399566   2.002335

