%chk=mol_1483.chk
# wB97XD/Def2SVP opt pop=full gfinput

C 6 H 13 N 1

1 2
C    4.936343  -2.750950  -0.664560
C    3.799786  -0.179278  -0.022469
N    2.018171  -0.378380   2.076185
C    5.789195   1.802950   0.624592
C    7.676861   1.121930   2.657994
C    6.744036   3.461204  -1.512140
C    5.008265   4.557302   0.443991
H    6.332567  -2.574922  -2.182747
H    3.467969  -4.065273  -1.299357
H    5.883417  -3.611815   0.962645
H    2.725401   0.458996  -1.677170
H    2.912673  -1.106907   3.614725
H    0.643301  -1.645101   1.620497
H    8.924874   2.713023   3.103063
H    8.879691  -0.444482   2.045439
H    6.726556   0.578218   4.411320
H    5.995080   3.177518  -3.398389
H    8.703682   4.060473  -1.493640
H    5.785000   5.888500   1.793520
H    3.077136   4.982169  -0.098530

