%chk=mol_2094.chk
# wB97XD/Def2SVP opt pop=full gfinput

C 5 H 8 N 2

1 2
N    3.047939   0.925985  -4.402306
C    4.890781   1.775398  -3.568918
C    7.235497   2.900578  -2.554267
N    9.407945   1.182572  -2.779674
C   11.735766   2.277574  -1.758957
C   12.435267   1.767159   0.944372
C   13.893985   0.534698  -1.153092
H    6.937657   3.387863  -0.563138
H    7.630544   4.660216  -3.574814
H    9.639172   0.694588  -4.632248
H   12.265211   4.110249  -2.530967
H   11.205850   0.576555   2.070668
H   13.352956   3.261932   2.000804
H   15.796448   1.198937  -1.518471
H   13.641026  -1.478616  -1.434831

