%chk=mol_0320.chk
# wB97XD/Def2SVP opt freq pop=full gfinput

C 5 H 9 N 1

1 2
C    1.45497942   0.45414984  -1.33997953
C    2.27949905  -0.11328995  -0.45048985
C    3.15465879   0.64037979   0.51193982
C    4.62214804   0.38206989   0.31886989
C    5.54411793   0.27598989   1.50724947
N    5.19269848  -0.90433967   0.72465974
H    0.84920967  -0.16068994  -1.99940920
H    1.36275947   1.53137934  -1.43169940
H    2.33451915  -1.19915950  -0.39308983
H    2.84777880   0.37025985   1.53022933
H    2.98349905   1.72007942   0.41749984
H    5.00540781   0.81506974  -0.59814978
H    5.12488842   0.31640986   2.50505900
H    6.56090736   0.63498980   1.41327953
H    5.95148754  -1.17081952   0.09418996

