%chk=mol_5557.chk
# wB97XD/Def2SVP opt freq pop=full gfinput

C 4 H 6 N 2 O 1

1 2
N    0.98621964   0.02839999  -0.06992997
C    2.32518911  -0.01900999  -0.03269999
C    3.14855862   1.07911956  -0.02224999
N    4.44719839   0.62633973   0.01722999
C    4.45794868  -0.74624974   0.03301999
C    3.15156865  -1.15921950   0.00067000
O    2.79236889  -2.44917917  -0.00849000
H    0.49731982   0.91204965   0.03913999
H    0.40191987  -0.77530968   0.12501995
H    2.93852901   2.13862944  -0.04004999
H    5.27055836   1.21460950   0.02885999
H    5.38486814  -1.30151951   0.05799998
H    1.82759941  -2.49714923  -0.10095996

