%chk=mol_2922.chk
# wB97XD/Def2SVP opt freq pop=full gfinput

C 6 H 10 O 1

1 2
C    0.26474991  -0.12756994  -0.46713981
C    1.66863942  -0.56264979  -0.16159995
C    1.92475927  -2.03845930  -0.26955989
C    2.61532903   0.32548988   0.18243994
O    3.90820861  -0.03204999   0.47037983
C    4.82055807   0.93984967   0.79216969
C    6.08445787   0.64158976   1.09830952
H    0.13603996   0.95585966  -0.36632985
H   -0.44084984  -0.61121976   0.21693993
H   -0.00328000  -0.40064985  -1.49342942
H    1.27466953  -2.58639908   0.42101985
H    2.95880890  -2.30844903  -0.03329999
H    1.71735942  -2.38440895  -1.28783941
H    2.41362906   1.38600945   0.25570989
H    4.45079851   1.95513928   0.77909970
H    6.42756748  -0.38752985   1.10249960
H    6.79601765   1.42011940   1.34967959

