%chk=mol_3218.chk
# wB97XD/Def2SVP opt pop=full gfinput

C 6 H 14 O 1

1 2
C    2.751460   0.489250  -0.919597
C    5.584103   0.476551  -0.495940
O    6.408194   3.021370  -0.179259
C    9.072160   3.170186   0.215221
C    9.840371   5.947554   0.521546
C   12.642797   6.151777   1.181362
C    9.256238   7.471070  -1.866539
H    2.035726  -1.432110  -1.176638
H    2.269958   1.611010  -2.590342
H    1.778421   1.355614   0.687898
H    6.535599  -0.369139  -2.128682
H    6.038223  -0.621474   1.199390
H   10.060676   2.319015  -1.394939
H    9.559387   2.110295   1.927521
H    8.731102   6.770889   2.069099
H   13.827712   5.364101  -0.321537
H   13.061844   5.129038   2.930663
H   13.190326   8.127845   1.459417
H   10.274592   6.717523  -3.502948
H    9.809946   9.450501  -1.625127
H    7.233588   7.437338  -2.299098

