%chk=mol_6161.chk
# wB97XD/Def2SVP opt freq pop=full gfinput

C 4 H 9 N 1 O 2

1 2
O    1.89570928  -0.04602998  -1.31090951
C    2.19700909   0.18779992   0.06375998
C    3.41584873   1.11023962   0.16240995
N    3.25299883   2.40238905  -0.56469977
C    2.80041909   3.03987885   0.68974972
C    3.55420876   1.93382931   1.47220945
O    4.90390825   2.25602913   1.88566923
H    1.19563949  -0.72017974  -1.33918953
H    2.40870905  -0.77107972   0.54749978
H    1.30970955   0.62532979   0.53218979
H    4.32915831   0.57837975  -0.13240995
H    2.55891919   2.34600902  -1.31384957
H    3.16913891   4.05899858   0.83509970
H    1.71362936   3.03475881   0.83181971
H    2.99769902   1.53548944   2.32714891
H    5.30956793   2.61118889   1.07163966

