%chk=mol_1365.chk
# wB97XD/Def2SVP opt pop=full gfinput

C 7 H 10

1 2
C    1.902236   0.050701   0.073567
C    4.708101  -0.009675  -0.020598
C    6.191196  -2.060349  -0.044484
C    8.815837  -1.344219  -0.121793
C   10.773121  -2.926222   0.073567
C    8.949497   1.479807  -0.425736
C    6.223586   2.385080  -0.041158
H    1.098781  -1.855711   0.044768
H    1.150295   1.081226  -1.554564
H    1.258747   0.990254   1.799964
H    5.540186  -3.995372   0.015628
H   12.701454  -2.231049   0.012775
H   10.504478  -4.945527   0.309839
H    9.594612   1.961592  -2.335834
H   10.229333   2.356980   0.943559
H    5.642968   3.652614  -1.569191
H    6.024333   3.385085   1.760941

