%chk=mol_0710.chk
# wB97XD/Def2SVP opt freq pop=full gfinput

C 5 H 8 O 1

1 2
C    1.07454967  -0.35465986  -0.08992996
C    2.49038911   0.15555994   0.14338996
C    2.58564901   1.65212929   0.04664998
C    3.14226890   2.30220914  -0.98780966
C    2.07243919   2.46188903   1.18332958
O    1.59242940   1.95937920   2.19220901
H    1.05929959  -1.44854951  -0.05433998
H    0.69877976  -0.04330998  -1.06990969
H    0.38337985   0.01417999   0.67339975
H    3.15574884  -0.31216988  -0.59423983
H    2.84786892  -0.17812993   1.12554955
H    3.54715848   1.75683939  -1.83527935
H    3.21446896   3.38493896  -1.02763963
H    2.15252924   3.55602884   1.06990969

