%chk=mol_6289.chk
# wB97XD/Def2SVP opt freq pop=full gfinput

C 4 H 5 N 1 O 2

1 2
O    1.21064961  -0.10448996  -0.65788972
C    2.27370906   0.11595996  -0.08687996
N    2.86453891   1.33075953   0.08488997
O    4.09956837   1.42013955   0.77047968
C    4.43726826   2.82769895   0.77360976
C    3.31917882   3.49065852   0.05379998
C    2.44658899   2.55689883  -0.31456986
H    2.86809874  -0.69956976   0.35749987
H    5.39177799   2.96277881   0.25779992
H    4.51560831   3.16953874   1.80917931
H    3.23612881   4.54842854  -0.13407995
H    1.51829946   2.67649889  -0.85477966

