%chk=mol_6120.chk
# wB97XD/Def2SVP opt pop=full gfinput

C 4 H 5 N 1 O 2

1 2
O    1.103354   0.886773   1.067223
C    3.260722   0.388301   0.356062
C    5.552318   2.216252   0.216752
C    5.066866   4.960493  -0.665316
C    6.651250   5.677588   1.660389
O    7.886300   7.446428   2.390617
N    6.377882   3.321420   2.651172
H    3.686572  -1.547232  -0.290999
H    7.164859   1.328742  -0.744231
H    3.113154   5.629173  -0.574458
H    5.920115   5.470134  -2.473255
H    7.718908   2.705502   3.863375

