%chk=mol_3885.chk
# wB97XD/Def2SVP opt freq pop=full gfinput

C 5 H 7 N 1 O 1

1 2
C    1.47112954   0.07219997   0.49490982
C    2.74293900  -0.07491998  -0.26038989
C    3.46939874   1.11049950  -0.83069968
C    4.05459833   0.34152985   0.32846987
C    4.88194847  -0.84319967   0.10449997
N    4.28152847  -1.78576922  -0.54409981
O    2.95035887  -1.36982942  -0.87349969
H    1.39807951   1.04924965   0.98366964
H    1.39281952  -0.69922972   1.26745951
H    0.61656982  -0.03277999  -0.18057993
H    3.07683873   2.10063910  -0.63512975
H    3.92404866   1.00000966  -1.80868924
H    4.06393862   0.78872967   1.31195951
H    5.91679764  -0.90000963   0.47143984

