%chk=mol_6985.chk
# wB97XD/Def2SVP opt pop=full gfinput

C 5 H 12 N 2

1 2
C    5.117189  -2.293447  -0.851945
C    4.205415   0.106618   0.444993
C    6.212191   2.151982   0.495883
N    8.461986   1.648162   2.093061
C    6.623244   3.688670  -1.871868
C    5.322621   4.885056   0.344006
N    6.678500   6.818491   1.810736
H    3.598417  -3.696833  -0.910565
H    6.719526  -3.132089   0.152728
H    5.716422  -1.908529  -2.794603
H    3.627065  -0.334444   2.385723
H    2.509594   0.780211  -0.537306
H    7.914759   1.078202   3.849996
H    9.491206   0.198289   1.351211
H    5.485686   3.280243  -3.524887
H    8.523383   4.301924  -2.329125
H    3.310365   5.239908   0.134586
H    8.466654   6.138246   2.122314
H    5.916468   6.937109   3.575475

