%chk=mol_3270.chk
# wB97XD/Def2SVP opt freq pop=full gfinput

C 5 H 4 O 2

1 2
C    0.79684967   0.57739979   0.17547993
C    2.09742928   0.49510983  -0.13608995
O    2.66752911  -0.63227975  -0.74837971
C    2.56471896  -1.80305922  -0.05548998
O    2.06922936  -1.99899924   1.04347956
C    2.95329905   1.61861932   0.03102999
C    3.68305874   2.56213903   0.17474994
H    0.37581986   1.47712946   0.61253977
H    0.12321995  -0.25672990   0.01332999
H    3.03154898  -2.59576893  -0.66159976
H    4.33089828   3.39690876   0.30550990

