%chk=mol_3262.chk
# wB97XD/Def2SVP opt freq pop=full gfinput

C 5 H 12 O 2

1 2
C    1.07419956   0.98325962   0.59558976
C    2.52231884   0.55618978   0.46187982
O    3.30592895   1.70840931   0.15683994
C    4.70177841   1.38777947   0.07510997
C    5.45711756   2.66931915  -0.28986987
C    6.95745707   2.44496918  -0.34849986
O    5.01369810   3.12263870  -1.57217944
H    0.43172982   0.12364995   0.80599970
H    0.72749972   1.46895945  -0.32248989
H    0.96198964   1.71331930   1.40415955
H    2.62183905  -0.17886993  -0.34397987
H    2.86614895   0.10959996   1.40126944
H    4.84220791   0.62812978  -0.70313972
H    5.04561806   0.99844962   1.03991961
H    5.22203779   3.46211863   0.42795983
H    7.21280718   1.68447936  -1.09471965
H    7.34942722   2.12841916   0.62294972
H    7.47020721   3.36482882  -0.64918971
H    4.03762865   3.10666895  -1.52261949

