%chk=mol_3059.chk
# wB97XD/Def2SVP opt freq pop=full gfinput

C 6 H 10 O 1

1 2
C    0.96302962  -0.20451993   0.26016989
C    2.39505911   0.14361995  -0.13744995
C    2.98986888  -0.90019965  -1.07125962
O    2.33576918  -1.68096948  -1.75651932
C    2.52121902   1.51162946  -0.78564972
C    1.72696936   1.77502930  -2.03913927
C    3.31482887   2.46239901  -0.26128989
H    0.54665977   0.55339980   0.93233967
H    0.93550962  -1.16852951   0.78083974
H    0.30154988  -0.29194990  -0.60863978
H    3.00268888   0.10242996   0.77626967
H    4.09320831  -0.90490967  -1.12242961
H    1.98531926   1.05485964  -2.82142878
H    1.92040932   2.77558899  -2.44147897
H    0.65320975   1.70723939  -1.83995926
H    3.89100862   2.29604912   0.64416975
H    3.40532875   3.44293880  -0.72005975

