%chk=mol_5637.chk
# wB97XD/Def2SVP opt pop=full gfinput

C 4 H 8 N 2 O 1

1 2
N    3.597434  -0.847032  -2.303198
C    4.145776   0.263352   0.171115
C    6.083010   2.359304  -0.073435
C    5.170461   4.883619  -1.236070
N    6.303786   6.146618   0.961776
C    6.466435   3.967745   2.319280
O    6.677688   3.638554   4.565351
H    2.251004  -2.212888  -2.091379
H    5.161239  -1.769861  -2.955078
H    4.853611  -1.218741   1.431430
H    2.381962   0.977706   0.987382
H    7.898375   1.694461  -0.831687
H    3.126060   5.178171  -1.338776
H    6.065794   5.412780  -3.020160
H    5.706633   7.711727   1.881619

