%chk=mol_1881.chk
# wB97XD/Def2SVP opt freq pop=full gfinput

C 5 H 10 N 2

1 2
N    1.09242964  -0.15832993  -0.04590998
C    2.50331926   0.12920995  -0.00211000
C    3.34051871  -0.57369977  -1.08656955
C    4.44169855  -0.31419989   0.00771000
C    3.29804873  -0.71975970   1.00854969
N    4.50800848   1.17180955   0.10902996
C    3.07352877   1.51832938   0.10382996
H    0.58002979   0.15662995   0.77685970
H    0.86791968  -1.14654958  -0.15638995
H    3.46245885  -0.05379998  -2.04247928
H    3.11801887  -1.62870932  -1.28802943
H    5.37639809  -0.87142968  -0.01458999
H    3.07049870  -1.79182923   1.05250955
H    3.37832880  -0.33754987   2.03135920
H    4.93240786   1.50561941   0.97380960
H    2.82761884   2.14954925  -0.75564975
H    2.78168893   2.02553916   1.02939963

