%chk=mol_4623.chk
# wB97XD/Def2SVP opt freq pop=full gfinput

C 5 H 11 N 1 O 1

1 2
C    1.02709961  -0.21211992   0.11262996
C    2.50259900   0.00173000  -0.23857991
C    2.81450891  -0.96714962  -1.37374938
O    3.62361884  -1.88730931  -1.27877951
N    2.81198883   1.38901949  -0.67876977
C    2.43219900   2.37903929   0.33650988
C    4.24940825   1.53737938  -0.96212965
H    0.75299972   0.30371988   1.03806961
H    0.81325966  -1.27697945   0.25875992
H    0.36968988   0.14268996  -0.68933976
H    3.11864877  -0.27587989   0.62651980
H    2.25744915  -0.79926968  -2.31233931
H    1.34676957   2.41243911   0.47070983
H    2.72150898   3.38755870   0.01943999
H    2.90204906   2.17665911   1.30539954
H    4.56180811   0.89235967  -1.78939927
H    4.86730814   1.30716956  -0.08687996
H    4.47254848   2.56189919  -1.28067958

