%chk=mol_5336.chk
# wB97XD/Def2SVP opt freq pop=full gfinput

C 5 H 9 N 1 O 1

1 2
C    1.04796958  -0.26410991   0.01246999
O    2.44707894  -0.03085999   0.01579999
C    2.89400887   1.33854949   0.00000000
C    2.40708899   2.05900931  -1.26758945
C    2.40709925   2.08645916   1.25106955
C    4.33800840   1.33854949   0.00000000
N    5.48901796   1.33854949   0.00000000
H    0.89003968  -1.34653950   0.02960999
H    0.57992977   0.12415995  -0.89514971
H    0.57004982   0.15424994   0.90132964
H    2.65596890   1.48108947  -2.16548920
H    2.85762882   3.05348897  -1.36674953
H    1.32012951   2.19149923  -1.26625955
H    2.65594912   1.52855945   2.16195917
H    1.31987953   2.21893930   1.24732959
H    2.85743880   3.08326864   1.32873940

