%chk=mol_6379.chk
# wB97XD/Def2SVP opt freq pop=full gfinput

C 4 H 5 N 1 O 2

1 2
O    0.72315973   1.03334963   0.31097990
N    2.01045918   0.48663983   0.25195992
C    2.86877894   1.44947946   0.16599993
C    4.31543827   1.17674959   0.08792997
C    5.16678810   2.20316911   0.00123000
C    6.61526775   1.94118929  -0.07687997
O    7.41986752   2.86137891  -0.15671994
H    0.15994993   0.23885991   0.37368986
H    2.55694914   2.50960898   0.14767994
H    4.61721849   0.13607995   0.10566996
H    4.86537838   3.24381876  -0.01637999
H    6.92886734   0.88436967  -0.05954998

