%chk=mol_0025.chk
# wB97XD/Def2SVP opt freq pop=full gfinput

C 3 H 5 N 1

1 2
C    1.00118959  -0.05257998   0.00343000
C    2.51999903   0.00000000   0.00000000
C    3.00201893   1.36116946   0.00000000
N    3.38622880   2.44615912   0.00000000
H    0.65645975  -1.09149957   0.00110000
H    0.58537978   0.44565985  -0.87936968
H    0.58973980   0.44020984   0.89131969
H    2.89538884  -0.53201979  -0.88117969
H    2.89953899  -0.53377980   0.87830967

