%chk=mol_5455.chk
# wB97XD/Def2SVP opt freq pop=full gfinput

C 4 H 7 N 1 O 2

1 2
C    5.76544809  -0.39504984   1.02758956
O    6.22502804   0.93428969   0.81098974
N    5.12835789   1.73356938   0.45639983
C    5.50356770   2.95637894   0.22387992
C    6.91412735   3.47044849   0.29991990
C    4.42114830   3.92288876  -0.19601993
O    4.67251825   5.07985830  -0.49327981
H    4.99605799  -0.41059983   1.80596924
H    6.61170721  -1.00401962   1.35635948
H    5.36968803  -0.81241965   0.09658996
H    7.37996721   3.14729881   1.23506951
H    6.94883776   4.56156826   0.26712990
H    7.48508739   3.07324886  -0.54392982
H    3.40704870   3.49376869  -0.20924993

