%chk=mol_0402.chk
# wB97XD/Def2SVP opt freq pop=full gfinput

C 4 H 8 N 2

1 2
C    1.03487968  -0.23255990  -0.83977968
C    2.17463923  -0.18372993  -0.13763995
C    3.08525896   1.00077963  -0.06314997
N    4.35494852   0.60119981  -0.62085974
C    5.50597811   1.27131963  -0.37628984
N    6.60185719   1.12207949  -1.02604961
H    0.42138982  -1.12926960  -0.83784968
H    0.68476975   0.61196983  -1.42618942
H    2.47405910  -1.05595958   0.44127986
H    3.19709897   1.30257952   0.98591959
H    2.68651891   1.85467935  -0.62165976
H    4.29894876   0.07256997  -1.48253942
H    5.45079803   1.98567927   0.46298984
H    6.47894764   0.40957984  -1.74824941

