%chk=mol_6816.chk
# wB97XD/Def2SVP opt freq pop=full gfinput

C 5 H 8 N 2

1 2
C    0.92538965   0.04877998  -0.00688000
C    2.40859914   0.00011000  -0.00056000
C    3.27912879   1.07316971   0.00497000
N    4.56104851   0.58633977   0.00760000
C    4.53268862  -0.78037971   0.00418000
N    5.66681814  -1.49351943   0.00375000
C    3.21591878  -1.17422962  -0.00068000
H    0.56054980   1.08090949   0.00326000
H    0.52294981  -0.46249983   0.87340963
H    0.53159982  -0.44207984  -0.90259963
H    3.09691882   2.13934922   0.00604000
H    5.39989805   1.14693964   0.00927000
H    5.64984798  -2.50933909   0.02997999
H    6.59578800  -1.08779955   0.04414998
H    2.86369896  -2.19687915  -0.00508000

