%chk=mol_4691.chk
# wB97XD/Def2SVP opt freq pop=full gfinput

C 5 H 9 N 1 O 1

1 2
C    1.25128949  -0.19204992  -0.69797975
C    2.59541917  -0.09350996   0.00181000
N    3.16269875   1.22647953  -0.20987992
C    4.49850845   1.53145933  -0.13138995
C    5.02696800   2.75829887  -0.11562996
C    6.48928738   2.93354893  -0.05278998
O    6.99962711   4.04694843  -0.04038998
H    0.82095969  -1.18868959  -0.56083977
H    1.35526943  -0.00788000  -1.77265930
H    0.54511982   0.54411983  -0.29970989
H    3.26467872  -0.86621964  -0.39345986
H    2.47171903  -0.27174988   1.07542968
H    2.52388883   2.00990915  -0.08389997
H    5.13486814   0.64769977  -0.09641996
H    4.43118811   3.66096854  -0.15926994
H    7.09336758   2.01154923  -0.01888999

