%chk=mol_1779.chk
# wB97XD/Def2SVP opt freq pop=full gfinput

C 5 H 12 N 2

1 2
C    0.93445963   1.08499956  -1.20819950
N    2.38912916   1.01525962  -1.18185961
C    2.91460896   1.59537947   0.05107998
C    4.40798855   1.48498940   0.04002998
C    5.24460793   2.53115916   0.13928995
C    6.73352718   2.42246914   0.12815996
N    7.26381731   3.22381878  -0.96384966
H    0.56569982   0.63570976  -2.13517928
H    0.58148974   2.12068939  -1.17280960
H    0.49522981   0.52802980  -0.37471986
H    2.76065898   1.54644942  -1.96912920
H    2.53595901   1.04572964   0.92072964
H    2.60020900   2.64135909   0.14961995
H    4.80859804   0.47792983  -0.05236998
H    4.84198809   3.53715873   0.23923990
H    7.06365728   1.38346946   0.01773999
H    7.12833738   2.79697895   1.07795966
H    6.93640709   2.82712913  -1.84440935
H    8.27797699   3.13190889  -0.97734964

