%chk=mol_7079.chk
# wB97XD/Def2SVP opt pop=full gfinput

C 6 H 3 N 1

1 2
C    1.560763   0.001606   0.000000
C    3.828415  -0.000057   0.000000
C    6.723948   0.000000   0.000000
C    8.973024   0.000000   0.000000
C   11.701789   0.000000   0.000000
C   12.612675   2.572238   0.000000
N   13.338726   4.622572   0.000000
H   -0.451267   0.008201   0.000000
H   12.416446  -1.008811  -1.660370
H   12.416446  -1.008811   1.660370

