%chk=mol_4845.chk
# wB97XD/Def2SVP opt freq pop=full gfinput

C 5 H 7 N 1 O 1

1 2
C    1.04901958  -0.15993993   0.18891993
C    2.52879906   0.05344998  -0.12475996
O    2.83262897  -0.62549973  -1.34594941
C    2.91113901   1.51899934  -0.20003992
C    3.38276887   2.12506938  -1.30626953
C    2.79614902   2.28528905   1.00291967
N    2.69068909   2.90127897   1.98004925
H    0.77652973   0.24616989   1.16799951
H    0.80960971  -1.22910953   0.18126994
H    0.41279984   0.30959991  -0.57021976
H    3.13275862  -0.42940983   0.65249974
H    2.13906908  -0.40262985  -1.99004924
H    3.52578855   1.58778942  -2.23845911
H    3.66196847   3.17607880  -1.30647957

