%chk=mol_0609.chk
# wB97XD/Def2SVP opt pop=full gfinput

C 5 H 10 O 1

1 2
C    1.657214   0.017801  -0.473868
C    4.447357   0.047413   0.090291
C    5.063030   0.002570   2.869587
C    6.196431  -1.331860  -1.698750
C    6.133711   1.508020  -1.702530
O    8.264661   2.780751  -0.613878
H    1.275452   0.037983  -2.508479
H    0.738732   1.673768   0.360465
H    0.780003  -1.681573   0.316567
H    7.093937  -0.173042   3.228068
H    4.133247  -1.603981   3.785858
H    4.400662   1.739795   3.778545
H    5.383074  -2.298587  -3.313484
H    7.835391  -2.288666  -0.930199
H    5.245029   2.426503  -3.309364
H    9.567286   1.610991  -0.060396

