%chk=mol_2666.chk
# wB97XD/Def2SVP opt pop=full gfinput

C 6 H 12 O 1

1 2
C    4.549365  -1.006978  -2.899860
C    4.600293  -0.014872  -0.204582
C    6.420817   2.197015   0.031653
O    5.449082   4.443729  -1.224788
C    6.031723   5.961292   0.980881
C    6.425296   3.588722   2.595066
C    8.839289   3.458501   4.124932
H    3.263576  -2.619633  -3.049281
H    6.431891  -1.622462  -3.499754
H    3.909919   0.452193  -4.220949
H    5.192986  -1.539484   1.065087
H    2.687455   0.543882   0.358840
H    8.317780   1.747883  -0.683230
H    7.699746   7.139196   0.649159
H    4.435433   7.149722   1.538010
H    4.769839   3.157997   3.767320
H   10.501322   3.910788   2.978095
H    9.101091   1.561651   4.907770
H    8.771391   4.793252   5.703742

