%chk=mol_4967.chk
# wB97XD/Def2SVP opt freq pop=full gfinput

C 5 H 9 N 1 O 1

1 2
C    1.01771963  -0.05305998   0.18687992
N    2.46428895   0.01088000  -0.00201000
C    3.05580878   1.05284965   0.87609971
C    4.18656874   0.05816998   1.19199955
C    3.14968896  -1.03230953   0.83160973
C    3.64383864  -2.24532914  -0.00209000
O    4.25423861  -3.22392869   0.43307984
H    0.61600977  -0.93891966  -0.31656989
H    0.54461980   0.82299966  -0.26951990
H    0.71022975  -0.09372996   1.23866951
H    2.46326923   1.33467948   1.75591934
H    3.36919856   1.96308923   0.35678989
H    5.04247808   0.11919995   0.50927979
H    4.54745865   0.05788998   2.22352910
H    2.57844901  -1.36263955   1.71175933
H    3.39964867  -2.20145941  -1.07731962

