%chk=mol_4658.chk
# wB97XD/Def2SVP opt freq pop=full gfinput

C 5 H 7 N 1 O 1

1 2
C    1.20235956  -0.03628999   0.50479984
C    2.44823909   0.07391997   0.03513999
N    3.10364866   1.23974955  -0.15052995
C    2.63053894   2.58324909   0.10465996
C    4.01319838   3.06948900  -0.39644986
C    4.33214808   1.57121944  -0.60128975
O    5.26651764   0.91401964  -0.99452960
H    0.75021970  -1.01618958   0.62314975
H    0.60200977   0.82257968   0.78166968
H    3.01638889  -0.81589967  -0.23114991
H    2.42599916   2.79054880   1.15885961
H    1.78470933   2.88366890  -0.52020985
H    3.99833846   3.65081859  -1.32149947
H    4.63851833   3.55793858   0.35472986

