%chk=mol_5914.chk
# wB97XD/Def2SVP opt freq pop=full gfinput

C 4 H 8 N 2 O 1

1 2
N    1.49410939  -2.49757910   0.85280973
N    2.17311931  -1.35544944   1.10320961
C    2.37646914  -0.63840973   0.04126998
C    3.13011885   0.66253978   0.11608995
O    2.27939916   1.65773940  -0.44512981
C    2.75665903   2.93741894  -0.46951982
C    3.93362856   3.40713859  -0.03942998
H    1.43539953  -3.05027890   1.71253932
H    0.52222979  -2.30046892   0.59882975
H    2.03712916  -0.95635962  -0.96209961
H    4.03964853   0.55636978  -0.48512980
H    3.37071872   0.88896966   1.16048956
H    2.01039934   3.58886862  -0.91248965
H    4.69584846   2.78241897   0.40882987
H    4.15825844   4.46588850  -0.12980995

