%chk=mol_5879.chk
# wB97XD/Def2SVP opt freq pop=full gfinput

C 4 H 7 N 1 O 2

1 2
N   -0.20944993   1.24077952   0.90673965
C    0.84207970   1.58563948   0.10871996
O    0.81949973   2.62072921  -0.55247980
C    2.03291941   0.62921977   0.12053996
O    1.72009933  -0.57689977   0.81784970
C    2.69875908  -1.52714944   0.88649964
C    3.93885851  -1.49874938   0.38697985
H   -0.22193992   0.34143987   1.37321949
H   -1.03729963   1.81956935   0.90233970
H    2.86191893   1.14739954   0.61630976
H    2.27913928   0.40485987  -0.92333966
H    2.32783914  -2.38506913   1.43867946
H    4.33940840  -0.65939975  -0.16859995
H    4.59908867  -2.34904909   0.53079981

