%chk=mol_4509.chk
# wB97XD/Def2SVP opt freq pop=full gfinput

C 4 H 6 N 2 O 1

1 2
C    1.26664960  -0.78721970   0.24122992
C    2.47252917  -0.32941988  -0.11117996
C    2.78575897   1.10771966   0.01023000
N    3.94448853   1.57324946  -0.32869989
N    4.09122849   2.91433907  -0.16211994
C    5.26971769   3.53069878  -0.48739982
O    5.46225786   4.73344851  -0.35847986
H    1.03595960  -1.84501934   0.15208994
H    0.48343983  -0.13971995   0.62218976
H    3.25285888  -0.97828960  -0.49182981
H    1.97941923   1.75330937   0.40336984
H    3.34242892   3.49113870   0.20476992
H    6.03223753   2.83685899  -0.87868971

