%chk=mol_2703.chk
# wB97XD/Def2SVP opt pop=full gfinput

C 6 H 8 O 1

1 2
C    6.497634  -1.798830  -4.615108
C    6.676044  -0.968126  -2.512278
C    6.890301   0.048604   0.064402
C    8.274808   2.560806   0.057656
C    6.822441   4.863966  -0.935490
O    7.284460   6.246074   1.380180
C    8.268402   3.992557   2.574960
H    6.338141  -2.540321  -6.482176
H    7.917253  -1.305876   1.249279
H    4.998817   0.249198   0.887982
H   10.185246   2.416204  -0.739979
H    4.794689   4.611064  -1.253928
H    7.673743   5.801648  -2.568686
H   10.133071   4.318138   3.404738
H    6.971880   3.297704   4.028877

