%chk=mol_3193.chk
# wB97XD/Def2SVP opt freq pop=full gfinput

C 6 H 14 O 1

1 2
C    0.95881963  -0.12068996  -0.00639000
C    2.47904921   0.02221999  -0.00429000
O    2.99320889  -0.72035968  -1.11234963
C    3.01820898   1.48459947  -0.02462999
C    2.56886911   2.25519896  -1.28039944
C    2.54159904   2.25247908   1.22253954
C    4.56175804   1.45435941  -0.01171000
H    0.49996981   0.35460985   0.86416966
H    0.68438977  -1.18167949   0.00490000
H    0.51522982   0.29728988  -0.91532964
H    2.85868883  -0.47681981   0.89593971
H    2.55387902  -0.40412983  -1.91949928
H    2.90571880   1.76457942  -2.19934916
H    2.98222899   3.27058887  -1.28436959
H    1.47948945   2.35135913  -1.32739949
H    2.80719900   1.71736932   2.14092922
H    1.45683944   2.40009904   1.21840954
H    3.00123882   3.24623895   1.27370954
H    4.93740797   0.91264969   0.86347967
H    4.97753811   2.46778917   0.02265999
H    4.96331787   0.96662962  -0.90649968

