%chk=mol_2772.chk
# wB97XD/Def2SVP opt pop=full gfinput

C 6 H 10 O 1

1 2
C    8.261694  -2.458458   1.938198
C    6.082121  -0.875113   1.030430
C    3.711913  -1.784790   1.088104
C    6.544462   1.666417   0.083016
C    8.805746   2.807415  -0.086701
C    9.179382   5.423382  -1.076785
O   10.304337   6.904171   0.852682
H    9.231633  -1.536706   3.519369
H    9.625244  -2.776707   0.411488
H    7.643772  -4.320726   2.603117
H    3.309742  -3.673741   1.784997
H    2.100185  -0.689315   0.446108
H    4.879802   2.709659  -0.536531
H   10.523582   1.846130   0.493748
H    7.406895   6.321871  -1.649920
H   10.451035   5.394941  -2.706088
H    9.247129   6.722190   2.345263

