%chk=mol_4156.chk
# wB97XD/Def2SVP opt pop=full gfinput

C 4 H 6 N 2 O 1

1 2
C    1.945246   0.019256   0.001814
C    4.771993   0.089252  -0.012075
N    5.975389   2.217329  -0.070846
N    8.612389   2.279010  -0.085794
C    9.780656   0.139896  -0.021902
C    8.460738  -2.357566   0.069032
O    5.794600  -2.251420   0.052043
H    1.251736  -1.927369  -0.029442
H    1.225809   1.008074  -1.663148
H    1.246860   0.949606   1.710032
H   11.860469   0.118883  -0.029820
H    9.089167  -3.475717  -1.553638
H    9.073577  -3.347347   1.778365

