%chk=mol_5458.chk
# wB97XD/Def2SVP opt pop=full gfinput

C 4 H 7 N 1 O 2

1 2
C    8.127108   5.287945  -4.596078
O    8.142509   6.642085  -2.272944
N    7.623363   4.942843  -0.306929
C    7.369592   6.207221   1.767177
C    6.852449   4.872640   4.204830
C    4.469826   5.727382   5.474102
O    3.268168   7.614633   4.868104
H    8.717798   6.570181  -6.104571
H    6.216783   4.608834  -5.004713
H    9.447704   3.697873  -4.519034
H    7.561758   8.285637   1.830294
H    8.424248   5.235184   5.498158
H    6.715652   2.836006   3.873749
H    3.877926   4.581603   7.112816

