%chk=mol_4846.chk
# wB97XD/Def2SVP opt freq pop=full gfinput

C 5 H 13 N 1 O 1

1 2
C    3.16143870  -1.16250956  -0.18183994
C    2.64503908  -0.03908999   0.70904970
O    2.99406886  -0.34012985   2.05843925
C    3.16095877   1.36003947   0.29651991
C    2.49387908   2.44729900   1.15058959
C    4.69812822   1.49854946   0.33131987
N    5.27899790   1.21936953   1.64610934
H    2.94178891  -0.96873963  -1.23618948
H    2.69083881  -2.11128926   0.10040997
H    4.23966837  -1.31155944  -0.06281998
H    1.55009949  -0.04234999   0.65725970
H    3.93524861  -0.07330997   2.15763927
H    2.84898901   1.53456950  -0.74237972
H    2.71698904   2.33236909   2.21605921
H    1.40524948   2.41237926   1.03296959
H    2.82760906   3.44329882   0.83989966
H    4.98498821   2.51171899   0.02522999
H    5.14597797   0.81653965  -0.39919984
H    5.00186825   1.95773923   2.29741907
H    6.29603720   1.29457951   1.57831943

