%chk=mol_6259.chk
# wB97XD/Def2SVP opt freq pop=full gfinput

C 4 H 6 N 2 O 1

1 2
O    5.07512808  -1.74833930   0.81585968
C    5.29466772  -0.59280980   1.14136958
C    5.28456783   0.48610979   0.10782996
N    5.51680756   1.70325935   0.47574982
N    5.47091770   2.54711914  -0.57384980
C    6.43110800   3.61819863  -0.30055988
C    4.96782827   3.82634854  -0.06930997
H    5.50842762  -0.25793990   2.16790915
H    5.07289791   0.15319994  -0.92368966
H    6.88032770   4.07316875  -1.17372954
H    7.08589745   3.51906872   0.55672979
H    4.60185814   3.87229848   0.94918966
H    4.41734838   4.42348814  -0.78452969

