%chk=mol_4838.chk
# wB97XD/Def2SVP opt pop=full gfinput

C 5 H 13 N 1 O 1

1 2
C    1.539692   0.013096  -0.366021
C    4.395692  -0.355533  -0.347162
O    5.144061  -1.504109  -2.668029
C    5.770033   2.173752  -0.056975
C    8.663412   1.969529  -0.122398
C    9.821511   0.291415   1.924932
N    9.163150   1.161955   4.457070
H    0.883712   0.878269   1.393522
H    0.576744  -1.803668  -0.603371
H    0.955521   1.205759  -1.953920
H    4.899021  -1.640490   1.193967
H    4.223330  -3.087189  -2.818357
H    5.169100   3.099245   1.696558
H    5.213301   3.428266  -1.612787
H    9.453110   3.881006   0.039004
H    9.262058   1.257858  -1.975066
H   11.882182   0.308895   1.724262
H    9.212378  -1.671463   1.694499
H    9.788215   2.969648   4.692322
H   10.106539   0.098738   5.756975

