%chk=mol_4407.chk
# wB97XD/Def2SVP opt freq pop=full gfinput

C 5 H 7 N 1 O 1

1 2
C    0.98921961  -0.02855999   0.00043000
C    2.51999903   0.00000000   0.00000000
C    3.05237889  -0.73487973   1.23640954
C    2.99414897  -0.73621970  -1.23840952
O    3.13800883  -0.22903992  -2.34749913
C    3.00201893   1.36116946   0.00000000
N    3.38622880   2.44615912   0.00000000
H    0.57929975   0.48135984  -0.88087964
H    0.57794982   0.46855983   0.88753968
H    0.60882980  -1.05725956  -0.01614999
H    2.73809910  -0.24055992   2.16388917
H    4.14922857  -0.77079970   1.23748958
H    2.69489884  -1.77113938   1.27256954
H    3.12373900  -1.82725930  -1.12446964

