%chk=mol_4457.chk
# wB97XD/Def2SVP opt freq pop=full gfinput

C 5 H 11 N 1 O 1

1 2
C    1.21572948   0.14379995   0.20847993
C    2.68802881  -0.07634997  -0.15399994
C    2.84708905  -0.92862964  -1.42824948
N    2.28091908  -2.26909924  -1.28163958
C    3.36513877   1.25659955  -0.34146985
C    4.13088846   1.90712929   0.78178966
O    4.79749823   1.20872962  -0.27865988
H    1.12672961   0.78455973   1.09237957
H    0.71225977  -0.80202967   0.43130982
H    0.67614973   0.63419974  -0.60921979
H    3.16444874  -0.60705978   0.68193972
H    3.90953851  -1.02353966  -1.68028939
H    2.36343908  -0.43075985  -2.27645922
H    2.76573896  -2.75839901  -0.52931982
H    2.46906900  -2.80383897  -2.12925935
H    2.91478896   1.88222933  -1.10163951
H    4.12856817   1.44352949   1.76069927
H    4.20941830   2.98752904   0.79364967

