%chk=mol_5583.chk
# wB97XD/Def2SVP opt pop=full gfinput

C 4 H 6 N 2 O 1

1 2
N    1.667079  -0.210232   0.011263
C    4.115710  -0.163537  -0.016082
C    5.628814   2.333491  -0.075873
O    8.327399   2.241461  -0.004875
C    9.385004  -0.130127   0.010809
C    8.081055  -2.295205   0.009505
N    5.505849  -2.332451  -0.004573
H    0.960775   1.595231  -0.006198
H    5.000744   3.482576   1.529903
H    5.084630   3.343360  -1.801155
H   11.426248  -0.027080   0.033448
H    8.994020  -4.129260   0.028233
H    4.569433  -3.998831   0.037152

