%chk=mol_1306.chk
# wB97XD/Def2SVP opt pop=full gfinput

C 5 H 10 N 2

1 2
C    1.180323   1.226073   2.070875
C    3.983127   1.516260   2.287230
C    5.462272   2.355733   0.405082
C    8.271294   2.647695   0.572984
N    8.834545   5.287491   0.188009
C   11.172741   6.126568  -0.426228
N   11.891234   8.441463  -0.354664
H    0.650727  -0.751204   2.368432
H    0.472621   1.812021   0.216789
H    0.240732   2.375764   3.510960
H    4.809164   0.997492   4.095396
H    4.621439   2.851824  -1.405446
H    9.160183   1.482604  -0.888568
H    8.996854   2.035632   2.412557
H    7.668584   6.510617   1.083890
H   12.495474   4.636254  -1.038971
H   10.420554   9.559595   0.208097

