%chk=mol_2353.chk
# wB97XD/Def2SVP opt pop=full gfinput

C 6 H 12 O 1

1 2
C    1.822905  -0.010072   0.027609
C    4.709386   0.033769  -0.029839
C    5.617891   0.247365  -2.781488
C    5.808735   2.142779   1.587370
C    8.423718   1.166981   2.232201
O    8.300886  -1.541733   2.178117
C    5.859304  -2.282846   1.250375
H    1.106907  -0.166201   1.964503
H    1.081037  -1.619098  -1.043809
H    1.037762   1.721748  -0.791172
H    7.681623   0.216959  -2.928339
H    4.953312   2.008533  -3.643675
H    4.895884  -1.324528  -3.920199
H    4.718779   2.355922   3.337975
H    5.862724   3.988872   0.658702
H    9.826084   1.766422   0.833842
H    9.058648   1.793199   4.097059
H    6.079287  -3.899393  -0.020428
H    4.745707  -2.895967   2.885083

