%chk=mol_1423.chk
# wB97XD/Def2SVP opt pop=full gfinput

C 5 H 10 N 2

1 2
C    5.443186  -1.378121  -2.594424
C    4.682987  -0.011395  -0.171153
C    5.720938   2.707637   0.000000
N    4.598233   3.869725   2.291690
C    5.222239   6.542402   2.539811
C    8.449702   2.707637   0.000000
N   10.624796   2.707637   0.000000
H    4.528143  -3.232887  -2.676722
H    7.484374  -1.685522  -2.684904
H    4.865837  -0.304227  -4.264299
H    5.318577  -1.138938   1.452141
H    2.609561   0.036396  -0.091179
H    5.026029   3.749273  -1.653284
H    5.217118   2.925013   3.854191
H    4.671233   7.608529   0.852777
H    7.236253   6.836708   2.901391
H    4.181019   7.336710   4.141486

