%chk=mol_4866.chk
# wB97XD/Def2SVP opt pop=full gfinput

C 4 H 10 N 2 O 1

1 2
C    3.764429  -0.770498   2.407417
C    4.477800   0.259705  -0.181546
O    2.343771   0.221287  -1.810093
C    5.645349   2.904925   0.075929
C    3.870575   5.130229   0.374884
N    8.104431   3.079006   0.030557
N    9.080606   5.430846   0.209306
H    5.398173  -0.814359   3.675461
H    2.999354  -2.685943   2.237833
H    2.294127   0.384559   3.296665
H    5.900575  -0.984018  -1.028654
H    0.889192   0.851322  -0.883901
H    2.002694   4.499306   0.988251
H    3.685230   6.094348  -1.443543
H    4.581736   6.454681   1.792046
H   11.002269   5.309545   0.392666
H    8.806199   6.411727  -1.434812

