%chk=mol_1571.chk
# wB97XD/Def2SVP opt pop=full gfinput

C 5 H 8 N 2

1 2
C    2.006568  -0.119752   0.838963
C    4.762110   0.000000   0.000000
N    4.997608  -1.028049  -2.526016
C    5.284052  -3.516383  -3.030421
N    5.177699  -4.517882  -5.235732
C    5.672996   2.572238   0.000000
C    6.423746   4.692322   0.000000
H    1.774604   0.657889   2.744638
H    1.323659  -2.074598   0.862188
H    0.773748   0.955578  -0.433768
H    5.906094  -1.119682   1.317007
H    4.482752   0.141956  -3.947657
H    5.638565  -4.707875  -1.355954
H    4.865516  -3.147377  -6.559069
H    7.105370   6.587906  -0.002249

