%chk=mol_2634.chk
# wB97XD/Def2SVP opt pop=full gfinput

C 5 H 6 O 2

1 2
C    1.543736   0.022166  -0.129749
C    3.663461   0.616769   1.116450
C    5.433246   2.522633   0.064232
C    4.809353   5.306067   0.558093
O    7.073018   5.596216   2.080494
C    7.694757   3.115270   1.829916
O    9.457380   1.999670   2.764462
H    0.252940  -1.384867   0.625216
H    1.038745   0.891497  -1.918129
H    4.122589  -0.308895   2.895627
H    6.039451   2.103360  -1.870186
H    3.106823   5.702154   1.663753
H    4.854423   6.527190  -1.109647

