%chk=mol_1855.chk
# wB97XD/Def2SVP opt pop=full gfinput

C 5 H 6 N 2

1 2
C    3.619052  -1.798244  -0.207851
N    5.768294  -0.889683   0.500267
N    5.975654   1.637580  -0.191259
C    8.103089   2.570802   0.578729
C    8.801286   5.268670   0.039987
C    9.247526   6.665064   2.396853
C    9.613755   7.816436   4.318440
H    3.151081  -3.784290   0.195209
H    2.184656  -0.673385  -1.220328
H    9.497102   1.417975   1.623331
H    7.302922   6.169427  -1.066316
H   10.524414   5.250472  -1.105528
H    9.931115   8.839364   6.024371

