%chk=mol_5513.chk
# wB97XD/Def2SVP opt freq pop=full gfinput

C 4 H 8 N 2 O 1

1 2
N    1.16606963   0.08951996   0.42646983
C    2.40961933   0.03969999   0.08145997
C    3.05644894  -1.32230949  -0.07156997
C    4.08711863  -1.29867947  -1.18874955
C    4.90457821  -0.01970999  -1.10463965
O    4.01700830   1.09804964  -1.23152959
N    3.20443869   1.15297961  -0.08218997
H    0.85830969   1.05917966   0.52145982
H    2.29649901  -2.08714914  -0.26170990
H    3.54151869  -1.56148946   0.88255972
H    4.73307848  -2.18075919  -1.13509953
H    3.56053877  -1.32415950  -2.15100908
H    5.47450781   0.05092998  -0.17014994
H    5.61484814   0.02656999  -1.93579924
H    2.70098901   2.03489923  -0.04634998

