%chk=mol_6739.chk
# wB97XD/Def2SVP opt freq pop=full gfinput

C 5 H 6 N 2

1 2
C    0.98047960   0.06259997   0.00539000
C    2.44869900  -0.06639998   0.00247000
C    3.24695873  -1.13589954   0.00008000
C    4.62978792  -0.64191973  -0.00265000
N    5.71757793  -1.31027949  -0.00514000
N    4.62452793   0.72052974  -0.00219000
C    3.37922883   1.05581963   0.00075000
H    0.49490982  -0.91829962   0.00148000
H    0.64132977   0.61080974  -0.87890965
H    0.64421976   0.60244977   0.89591968
H    2.97381878  -2.17487931   0.00009000
H    5.52244759  -2.31186914  -0.00502000
H    3.00069880   2.08826923   0.00187000

