%chk=mol_2791.chk
# wB97XD/Def2SVP opt pop=full gfinput

C 6 H 10 O 1

1 2
C    1.564958   0.318910   0.291509
C    4.294138  -0.474057   0.078991
C    4.686426  -3.289049   0.102177
C    6.132445   1.276850  -0.118977
C    8.926008   0.870880  -0.376358
C   10.216048   1.945832   1.928484
O   11.251486   4.021621   1.971268
H    1.340213   2.376217   0.284536
H    0.746555  -0.394235   2.053036
H    0.474680  -0.437925  -1.295729
H    3.780605  -4.144377  -1.550407
H    3.841908  -4.110003   1.804292
H    6.673265  -3.844043   0.083942
H    5.585407   3.266770  -0.127160
H    9.618857   1.865991  -2.053528
H    9.483459  -1.106435  -0.561494
H   10.121845   0.764470   3.645338

