%chk=mol_0209.chk
# wB97XD/Def2SVP opt freq pop=full gfinput

C 4 H 8 O 1

1 2
C    0.95820969   0.01101000   0.04600998
C    2.45982909  -0.04211999   0.02685999
C    3.12787890  -1.20376945   0.13797995
C    3.16593885   1.27322948  -0.14479995
O    2.91370893   2.08968925   0.98799968
H    0.60542977   0.60904974   0.89226967
H    0.51313978  -0.98565966   0.13559996
H    0.58253980   0.46015984  -0.87911963
H    2.60632920  -2.14937925   0.25315991
H    4.21285820  -1.24192953   0.11493996
H    2.80570889   1.79195940  -1.03885961
H    4.24972820   1.15144956  -0.24346991
H    3.10179901   1.54304945   1.76990938

