%chk=mol_6547.chk
# wB97XD/Def2SVP opt pop=full gfinput

C 4 H 8 O 2 S 1

1 2
C    2.071215   0.204733   0.327376
C    4.846411   0.044427  -0.162195
C    6.050563  -2.096727  -0.804853
S    6.607711   2.838671   0.126196
C    7.778131   2.596333   3.261762
O    8.770559   2.749117  -1.559175
O    4.900948   4.983963   0.068918
H    1.161936   1.454692  -1.047381
H    1.711147   0.939175   2.227723
H    1.159007  -1.647973   0.189577
H    5.035534  -3.866512  -1.020660
H    8.070435  -2.140153  -1.181438
H    6.187663   2.487579   4.571191
H    8.894563   4.286598   3.658756
H    8.972325   0.921468   3.415321

