%chk=mol_0343.chk
# wB97XD/Def2SVP opt pop=full gfinput

C 5 H 11 N 1

1 2
C    6.973411  -3.208245   2.302291
C    6.148734  -1.678946   0.053952
C    4.982452  -2.757526  -1.926141
C    6.620277   1.142396   0.168053
C    9.438029   1.824757   0.100741
N    9.800365   4.565540   0.122492
H    9.033515  -3.207149   2.467926
H    6.358248  -5.178435   2.165437
H    6.169672  -2.423309   4.038723
H    4.617092  -4.777095  -1.989220
H    4.352039  -1.653605  -3.539022
H    5.751287   1.894280   1.895887
H    5.657481   2.081760  -1.412627
H   10.325671   1.036628  -1.595590
H   10.411484   1.029164   1.743216
H    8.998611   5.331239  -1.453502
H   11.684176   4.953615   0.007540

