%chk=mol_6377.chk
# wB97XD/Def2SVP opt pop=full gfinput

C 4 H 6 N 2 O 1

1 2
O    3.979782  -0.781761   2.885517
N    4.943259   0.427910   0.728660
C    5.291082  -1.221519  -1.446604
C    7.573796  -2.788423  -1.173142
C    9.447781  -4.050628  -0.955030
C    6.474598   2.443076   1.253380
N    6.521842   3.692657   3.342869
H    5.495097  -1.442107   3.713425
H    5.420812  -0.075948  -3.167030
H    3.625024  -2.432815  -1.663734
H   11.118544  -5.160577  -0.764092
H    7.756551   2.961976  -0.307175
H    5.128660   2.932269   4.464251

