%chk=mol_2857.chk
# wB97XD/Def2SVP opt freq pop=full gfinput

C 6 H 10 O 1

1 2
C    1.74418938  -1.03756964   0.61946976
C    3.23470879  -0.75714970   0.50323981
C    3.49751878   0.64944977  -0.03593999
C    4.96930790   0.91299969  -0.18738993
C    5.61140776   1.89760935   0.45700982
C    7.05770731   2.11341906   0.25229990
O    7.65489721   3.01332879   0.82933968
H    1.57757950  -2.04644918   1.00890970
H    1.25535953  -0.96542960  -0.35711986
H    1.26325953  -0.32693988   1.29846954
H    3.68876863  -1.50616944  -0.15773994
H    3.70068860  -0.87440968   1.48961949
H    3.03657889   1.39000952   0.62893975
H    3.02347875   0.76436973  -1.01786959
H    5.50558805   0.26097989  -0.87421972
H    5.11992788   2.57647896   1.14437950
H    7.56256723   1.42479944  -0.44498983

