%chk=mol_5208.chk
# wB97XD/Def2SVP opt pop=full gfinput

C 4 H 6 N 2 O 1

1 2
C    2.601605  -1.076407  -0.506012
N    5.232765  -0.385504  -0.329247
C    5.938880   2.127529  -0.305890
O    4.424983   3.868402  -0.556430
C    8.733596   2.585845   0.023565
C    9.340576   2.888635   2.697905
N    9.889145   3.065854   4.816288
H    2.467566  -3.126835  -0.702184
H    1.748885  -0.151802  -2.145444
H    1.628131  -0.465591   1.210955
H    6.469761  -1.724904   0.252241
H    9.245183   4.279058  -1.051500
H    9.799251   1.011533  -0.796161

