%chk=mol_3799.chk
# wB97XD/Def2SVP opt freq pop=full gfinput

C 5 H 6 O 2

1 2
O    2.69120908  -0.85531968   0.29940987
C    2.04211926   0.31861988   0.13155995
O    0.83090967   0.39506984   0.00603000
C    2.96573901   1.49560940   0.15460993
C    2.46608925   2.64829922   0.62977976
C    4.30042839   1.39720941  -0.40824983
C    5.41579819   1.83635926   0.18809994
H    3.63935876  -0.74958968   0.50384980
H    1.44803941   2.71008897   1.00721955
H    3.04524899   3.56568885   0.63731974
H    4.36875868   0.91108966  -1.38208950
H    5.40085793   2.31633925   1.16262949
H    6.38154745   1.72619927  -0.29482991

