%chk=mol_6528.chk
# wB97XD/Def2SVP opt freq pop=full gfinput

C 5 H 5 N 1 S 1

1 2
C    2.85860896  -1.26134944   0.39263985
C    2.36132908  -0.04207999   0.14576994
C    3.11237884   1.17044950   0.08611996
N    2.56869888   2.34994912  -0.16083993
C    3.52285862   3.34647870  -0.15994993
C    4.80937815   2.93268871   0.08904997
S    4.83024836   1.24079955   0.33072990
H    2.19467926  -2.12079906   0.41535985
H    3.90901852  -1.45704937   0.57708979
H    1.29331946   0.06206998  -0.02819999
H    3.22015882   4.36903858  -0.34898987
H    5.71054745   3.52593875   0.13892995

