%chk=mol_6719.chk
# wB97XD/Def2SVP opt pop=full gfinput

C 3 H 4 O 3 S 1

1 2
O    2.152379   0.601122  -0.122171
S    5.149126   0.010167   0.000321
O    5.633217  -1.186880   2.406982
O    5.712397  -1.212335  -2.380072
C    6.262911   3.224213   0.000000
C    8.991676   3.224213   0.000000
C   11.240752   3.224213   0.000000
H    1.430504  -0.448394  -1.472002
H    5.494473   4.139577   1.685560
H    5.500747   4.137631  -1.689718
H   13.256107   3.210304   0.003288

