%chk=mol_2103.chk
# wB97XD/Def2SVP opt freq pop=full gfinput

C 4 H 5 N 3

1 2
N    1.89020932   1.21550953  -1.97507930
C    2.70284915   1.01381958  -1.16646945
C    3.66861868   0.75197971  -0.13388994
N    4.88914824   0.93906963  -0.50368983
N    5.75274801   0.68022978   0.49952981
C    6.97516727   0.15970993  -0.11717996
C    6.89017773   1.58633935   0.32405990
H    3.32277870   0.42409983   0.85959971
H    6.96704721  -0.05838998  -1.17853951
H    7.54709721  -0.52949983   0.49047980
H    7.40408707   1.87116933   1.23299956
H    6.82288742   2.36147928  -0.43009984

