%chk=mol_0659.chk
# wB97XD/Def2SVP opt freq pop=full gfinput

C 6 H 8

1 2
C    2.70970893  -0.74840975  -0.93660969
C    2.21640921   0.29801989  -0.26092991
C    2.91259885   1.56733930  -0.06617998
C    2.15267920   2.64532900   0.20675991
C    4.36910820   1.66076946   0.03713999
C    5.12204790   2.72006893  -0.28872988
H    2.12644935  -1.65664935  -1.04555964
H    3.68700862  -0.72475976  -1.40741944
H    1.21808958   0.21079992   0.16554993
H    1.06754959   2.59950900   0.19814992
H    2.58252907   3.61130881   0.44891983
H    4.86980820   0.76187974   0.39481986
H    4.69610834   3.63810849  -0.67880976
H    6.20132780   2.67999887  -0.18253994

