%chk=mol_5841.chk
# wB97XD/Def2SVP opt pop=full gfinput

C 4 H 6 N 2 O 1

1 2
N    2.448499  -0.466876  -1.565449
C    4.770614  -0.472677  -0.527498
N    5.735508  -2.295979   0.737617
O    5.982854   1.724356  -0.934999
C    8.500725   1.876933   0.054878
C    9.548351   4.376511  -0.551384
C   10.408498   6.420817  -1.046965
H    1.840480   1.293574  -2.013862
H    1.129395  -1.528977  -0.685290
H    4.484301  -3.767434   0.747236
H    9.677269   0.403608  -0.802718
H    8.459869   1.624862   2.110427
H   11.165673   8.231440  -1.490484

