%chk=mol_6194.chk
# wB97XD/Def2SVP opt freq pop=full gfinput

C 5 H 9 N 1 O 1

1 2
O    2.50992894  -0.57984978   1.33015943
C    2.32041907  -0.03256999   0.03125999
C    2.84861875   1.38039947   0.00971000
C    2.02858925   2.40812922  -0.27952990
C    4.27503872   1.53170943   0.34844989
C    5.31538773   1.17977965  -0.68552971
N    5.05829811   2.56690907  -0.33190989
H    2.07495928  -1.44809949   1.33065939
H    1.25157964  -0.07346997  -0.20565993
H    2.85707903  -0.65342981  -0.69352978
H    0.97937965   2.26284933  -0.51172984
H    2.40285897   3.42787886  -0.28987989
H    4.51660824   1.35740948   1.39214945
H    4.99788809   0.88364971  -1.67803931
H    6.25371742   0.75549972  -0.35054988
H    5.77275801   2.92885900   0.30051988

