%chk=mol_6970.chk
# wB97XD/Def2SVP opt freq pop=full gfinput

C 6 H 13 N 1

1 2
C    1.34480953   0.17960992   1.24588954
C    2.01604915   0.38482988  -0.10361996
C    3.24743867   1.22735953   0.02236999
N    3.57912874   2.20444918  -1.01154959
C    3.14248896   2.71076894   0.28625989
C    4.14053869   3.36273885   1.19671953
C    3.92841840   4.86576843   1.27763951
H    0.48180982  -0.48624980   1.14527965
H    0.99302959   1.13140965   1.65545940
H    2.03810930  -0.26011992   1.96868920
H    1.29406953   0.83457971  -0.79690969
H    2.29463911  -0.59025979  -0.52175981
H    4.08398867   0.68478978   0.44862986
H    2.83227897   2.28930926  -1.70294940
H    2.15336919   3.14921880   0.34549987
H    5.16540813   3.16010880   0.86350971
H    4.03936863   2.93425870   2.20132899
H    3.99651837   5.32707787   0.28793991
H    4.68288803   5.32302809   1.92562926
H    2.94112873   5.09787846   1.68959939

