%chk=mol_5026.chk
# wB97XD/Def2SVP opt pop=full gfinput

C 5 H 8 N 2

1 2
C    2.103416   2.315047  -0.234893
N   -0.406102   2.561297   0.839964
C   -2.360363   1.362719  -0.355420
N   -2.737041  -0.975722  -0.796425
C   -1.062612  -2.852674   0.334897
C    1.722693  -2.492775   0.004139
C    3.043064  -0.342022  -0.247403
H    3.400638   3.464869   0.899453
H    2.140606   3.077797  -2.161072
H   -0.784388   4.414589   1.159706
H   -3.784668   2.725155  -1.037120
H   -1.538237  -4.658553  -0.568127
H   -1.508342  -3.094200   2.340709
H    2.789066  -4.253188   0.001474
H    5.080888  -0.515120  -0.473017

