%chk=mol_5404.chk
# wB97XD/Def2SVP opt freq pop=full gfinput

C 6 H 13 N 1

1 2
C    1.12871957  -0.03373998  -0.09820996
C    2.61407900   0.09601996  -0.13610995
C    3.40134859  -0.51360983  -1.26404953
C    3.34127879   0.99941963  -1.12886965
C    2.53552890   1.77346945  -2.14667916
C    4.56576824   1.73047936  -0.61852980
N    5.57128811   1.77540934  -1.66979933
H    0.68398976   0.86168969   0.34631985
H    0.84698969  -0.89302969   0.51860982
H    0.69032973  -0.18247993  -1.08908963
H    3.02727890   0.01425000   0.86462969
H    2.86560869  -0.97781968  -2.08495927
H    4.32519865  -1.02341962  -1.01348960
H    1.73889935   1.17139959  -2.59468913
H    3.17127895   2.12064910  -2.96724892
H    2.07594919   2.64872909  -1.67614937
H    4.98858786   1.23056960   0.26010990
H    4.29549837   2.74828887  -0.31796989
H    5.82063770   0.82296968  -1.92957926
H    6.41853762   2.20256901  -1.30167949

