%chk=mol_3240.chk
# wB97XD/Def2SVP opt freq pop=full gfinput

C 5 H 8 O 2

1 2
C    0.90103966   0.18456993  -0.04792998
C    2.42449927   0.22168992  -0.04361999
O    2.88182902  -0.59354979   1.03082955
C    2.99045873  -0.27339992  -1.35479951
C    3.81327844  -1.31896949  -1.52691936
C    2.90917873   1.66116941   0.16434994
O    3.84493852   1.95634925   0.90722966
H    0.47640982   0.80215967  -0.84728968
H    0.50322980   0.55197978   0.90558964
H    0.53112978  -0.84060967  -0.16729993
H    3.74783874  -0.22277991   1.29310954
H    2.69196916   0.28034991  -2.24430919
H    4.14674854  -1.92918932  -0.69193977
H    4.16421843  -1.59720945  -2.51578903
H    2.39470911   2.43472910  -0.43164983

