%chk=mol_1857.chk
# wB97XD/Def2SVP opt freq pop=full gfinput

C 5 H 10 N 2

1 2
C    3.76469874  -1.54600942  -0.88176966
N    4.93147850  -0.76100969  -0.49556983
N    4.71423817   0.56876981  -0.36494985
C    5.71781778   1.29953957   0.04944998
C    7.08127737   0.73131973   0.39396983
C    5.45170784   2.76484895   0.17368993
C    6.31524754   3.71291852   0.55624980
H    4.02338839  -2.60876918  -0.90241969
H    3.41115880  -1.25692952  -1.87656927
H    2.94988894  -1.41152942  -0.16338994
H    5.68443775  -0.95208961  -1.15999961
H    6.96975756  -0.05053998   1.15171957
H    7.77159691   1.47531939   0.78962970
H    7.53102732   0.29943991  -0.50547981
H    4.43304825   3.04719877  -0.08383997
H    7.34425735   3.51961875   0.82926965
H    5.98843765   4.74769783   0.60573983

