%chk=mol_6092.chk
# wB97XD/Def2SVP opt freq pop=full gfinput

C 6 H 11 N 1

1 2
C    1.01766968   0.04685998   0.08222997
C    2.35872912   0.00306000   0.02309999
C    3.12461877  -1.29213953  -0.00435000
C    4.10989857  -1.29052961  -1.17081952
C    4.95819807  -0.01862999  -1.17548954
N    4.11732864   1.17839956  -1.20631957
C    3.21985865   1.23580956  -0.05220998
H    0.48119983   0.99047965   0.08127997
H    0.42225984  -0.86023968   0.11943995
H    2.45707917  -2.15758920  -0.08945996
H    3.67204857  -1.40106940   0.94036967
H    4.76094818  -2.17002916  -1.10604954
H    3.55992866  -1.36956942  -2.11821914
H    5.61780787   0.00321000  -0.29953989
H    5.60172796  -0.02159999  -2.06158924
H    4.70868826   2.00712919  -1.20508957
H    3.79955840   1.33658946   0.87394971
H    2.60216880   2.13685918  -0.13852994

