%chk=mol_4258.chk
# wB97XD/Def2SVP opt pop=full gfinput

C 5 H 5 N 1 O 1

1 2
C    5.058816  -2.075165   0.763903
C    4.144491   0.239579   0.296309
C    5.623031   2.474010   0.149251
C    4.781291   4.881900  -0.323049
O    6.830113   6.446877  -0.295478
C    8.800379   4.862738   0.197798
N    8.192171   2.471044   0.480803
H    3.818758  -3.704185   0.850226
H    7.065327  -2.385836   1.069434
H    2.118799   0.430158   0.006463
H    2.972634   5.752534  -0.687690
H   10.652897   5.715779   0.307647

