%chk=mol_1709.chk
# wB97XD/Def2SVP opt pop=full gfinput

C 7 H 10

1 2
C    1.889726   0.000000   0.000000
C    4.138803   0.000000   0.000000
C    6.867567   0.000000   0.000000
C    7.967898   2.127548   1.609442
C   10.645281   1.227925   2.129627
C   10.339542  -1.586293   2.630253
C    7.991047  -2.409401   1.156286
H   -0.124117  -0.000057   0.000454
H    7.574211   0.195228  -1.940900
H    6.930533   2.347890   3.392814
H    7.936056   3.951153   0.631187
H   11.833957   1.527976   0.460035
H   11.514498   2.219143   3.722420
H   12.021002  -2.649963   2.064167
H   10.043044  -1.922059   4.652619
H    8.482886  -3.767282  -0.327130
H    6.667445  -3.368153   2.432512

