%chk=mol_5327.chk
# wB97XD/Def2SVP opt freq pop=full gfinput

C 5 H 11 N 1 O 1

1 2
C    1.17078960  -0.17007993  -0.33416986
O    2.56604886   0.10518996  -0.29832989
C    2.96484900   1.40876949  -0.09371996
C    2.15112925   2.46847892   0.04498998
C    4.46953821   1.56731939  -0.05796998
C    5.09750843   0.82873970   1.13030958
N    6.55112743   1.00793958   1.15944958
H    1.04459965  -1.24626958  -0.48556980
H    0.69100970   0.34664989  -1.17147958
H    0.69460976   0.09380996   0.61575973
H    1.07065964   2.39735913   0.01415999
H    2.55753899   3.46512866   0.19530994
H    4.74376822   2.62943912  -0.01122000
H    4.88382816   1.18224955  -0.99874967
H    4.87556839  -0.24324991   1.07618952
H    4.67820835   1.20471954   2.07028913
H    6.95351744   0.61563975   0.30866989
H    6.93498755   0.46193981   1.92998922

