%chk=mol_0973.chk
# wB97XD/Def2SVP opt freq pop=full gfinput

C 4 H 9 N 1 O 1

1 2
C    0.94106960  -0.06305998  -0.05803998
C    2.46102929   0.00673000   0.01433999
C    3.10554886  -0.72782969  -1.15417957
C    2.89160895   1.45287955  -0.01241000
N    3.54903865   1.96561933   0.97628963
O    3.81719875   3.30909872   0.69072974
H    0.48755983   0.47658983   0.78060973
H    0.59584981  -1.10137951  -0.01995999
H    0.56254977   0.38910985  -0.98165965
H    2.79807901  -0.44581982   0.95436960
H    2.80054903  -0.29824987  -2.11502910
H    2.82785892  -1.78688943  -1.15028954
H    4.19773865  -0.66289979  -1.09829962
H    2.62301898   2.04779935  -0.90460968
H    4.30652857   3.59689856   1.48420942

