%chk=mol_6914.chk
# wB97XD/Def2SVP opt freq pop=full gfinput

C 6 H 9 N 1

1 2
C    2.39842916  -0.52785981  -1.40732944
C    2.50941896   0.02557999   0.00456000
C    2.95902896   1.44774950   0.00357000
C    2.23095918   2.62135887  -0.00589000
C    3.15035892   3.69680858  -0.00182000
C    4.41406822   3.15491867   0.01123000
N    4.29076862   1.79019928   0.01555999
H    2.06178927  -1.56909943  -1.38107955
H    3.36416864  -0.49596980  -1.92321932
H    1.68064940   0.04644998  -2.00303936
H    3.20856881  -0.58829981   0.58480978
H    1.53506947  -0.04986998   0.50163984
H    1.15090966   2.69447899  -0.01591999
H    2.91401887   4.75338793  -0.00775000
H    5.39032793   3.62137842   0.01802999
H    5.06171799   1.13581955   0.02403999

