%chk=mol_5359.chk
# wB97XD/Def2SVP opt freq pop=full gfinput

C 5 H 8 N 2

1 2
C    0.94636965  -0.01232000   0.56274980
C    2.37201905  -0.03461999   0.13249995
C    2.80650902   0.75230968  -1.07414961
N    4.21285820   1.15100956  -1.23802948
N    4.91769791   0.00619000  -1.54797935
C    4.17475843  -1.05008960  -1.44232941
C    2.77199888  -0.75243974  -1.12965953
H    0.74565971   0.88613963   1.15540957
H    0.72702968  -0.88640970   1.18427956
H    0.25791991  -0.01901999  -0.28870988
H    3.04607892  -0.06952997   0.98113966
H    2.06778932   1.31083941  -1.63575935
H    4.36256838   1.86706924  -1.95293927
H    4.52343798  -2.07999921  -1.60556948
H    2.01646924  -1.21656954  -1.74772930

