%chk=mol_2240.chk
# wB97XD/Def2SVP opt pop=full gfinput

C 5 H 6 O 2

1 2
C    1.986971   2.094459  -0.859164
O   -0.270155   2.973881   0.315849
C   -2.378882   1.526464   0.008938
C   -2.598184  -0.944410  -0.499908
O   -0.789131  -2.789652  -0.691375
C    1.604359  -2.458137   0.236896
C    2.938411  -0.313959   0.245343
H    3.417230   3.562550  -0.564782
H    1.723581   1.940087  -2.910273
H   -4.037627   2.696375   0.290527
H   -4.437946  -1.813381  -0.742908
H    2.347645  -4.238108   0.920183
H    4.848262  -0.322482   0.990235

