%chk=mol_5482.chk
# wB97XD/Def2SVP opt freq pop=full gfinput

C 5 H 7 N 1 O 1

1 2
N    1.05113959   0.02112999   0.77689970
C    2.37915897  -0.00873000   0.14893995
C    2.60471892   0.71724969  -1.15264964
O    3.97572851   1.14078963  -1.49274945
C    4.63550854  -0.05066998  -1.78360927
C    3.90877843  -1.15147948  -1.58166933
C    2.56702900  -0.80917966  -1.11618960
H    0.94340962   0.87032968   1.33216953
H    0.95270967  -0.75473970   1.43177938
H    3.20453882   0.00336000   0.85814965
H    1.77855933   1.24191964  -1.61604941
H    5.65163803   0.05564998  -2.11895919
H    4.24890804  -2.16419935  -1.74289930
H    1.72445929  -1.30081952  -1.58333945

