%chk=mol_6401.chk
# wB97XD/Def2SVP opt pop=full gfinput

C 4 H 8 N 2 O 1

1 2
O    1.772053   5.276134   1.109591
N    4.000853   4.021488   1.766970
C    5.401366   3.218940  -0.280549
N    4.512307   3.123320  -2.561221
C    8.138899   2.440808   0.175763
C    9.764895   4.763584   0.141711
C   11.183153   5.561691   2.081760
H    0.489326   3.961584   1.299773
H    5.018905   4.901307   3.150003
H    2.706352   3.822311  -2.464108
H    8.744103   1.139769  -1.315287
H    8.260919   1.444469   1.987330
H    9.773342   5.837912  -1.613958
H   11.263467   4.546889   3.861693
H   12.326948   7.257247   1.906469

