%chk=mol_2525.chk
# wB97XD/Def2SVP opt freq pop=full gfinput

C 5 H 10 O 2

1 2
C    1.04969966  -0.00082000  -0.02456999
C    2.54251909   0.05306998   0.01041000
O    3.10232878   0.01441999   1.32944953
C    3.35481882  -0.62996978  -1.05687964
C    3.28344870   0.87760967  -1.01184964
C    4.47565794   1.68818939  -0.63557976
O    5.25691795   1.91449928  -1.80172932
H    0.66267973   0.02719999  -1.04840958
H    0.62760979   0.84902966   0.52066982
H    0.69271970  -0.92196965   0.44629985
H    2.87100887  -0.81312966   1.78685939
H    2.83364892  -1.13344955  -1.86308920
H    4.27856827  -1.11386955  -0.76065969
H    2.69655895   1.37932944  -1.77418935
H    5.10817814   1.19890964   0.11138996
H    4.16395855   2.65907884  -0.24033991
H    5.53267765   1.03885961  -2.12054920

