%chk=mol_4371.chk
# wB97XD/Def2SVP opt pop=full gfinput

C 6 H 9 N 1

1 2
C    0.701258   2.979493   1.013347
C    2.654819   1.049724  -0.009430
C    0.978954  -0.755683  -1.554073
N   -0.882691   1.063198  -2.594292
C   -1.789023   1.978675  -0.105107
C   -2.401955  -0.514251   1.111613
C   -0.711992  -2.183673   0.226918
H    1.141262   4.875947   0.305739
H    0.690695   3.029798   3.082597
H    3.661042   0.095922   1.527560
H    4.039554   2.012898  -1.211862
H    1.932226  -1.904523  -2.975714
H    0.023924   2.477091  -3.530405
H   -3.353602   3.316942  -0.208569
H   -3.856175  -0.849678   2.497311
H   -0.523190  -4.142091   0.752546

