%chk=mol_5309.chk
# wB97XD/Def2SVP opt freq pop=full gfinput

C 5 H 11 N 1 O 1

1 2
C    1.43418944   0.37007985  -0.64303976
O    2.85305882   0.45126984  -0.62926978
C    3.31161880   1.45401943   0.28152990
C    4.83369780   1.48344946   0.23212992
C    5.48306799   2.13413906  -1.01013958
C    6.47321749   2.73662901  -0.00124000
N    5.42364788   2.59575891   1.03562963
H    1.14140964  -0.42377985  -1.33529949
H    1.00062966   1.31328952  -0.98939967
H    1.05348957   0.12281995   0.35277987
H    2.97409892   1.19918954   1.29330945
H    2.88582897   2.42544913   0.00103000
H    5.27214766   0.50748980   0.48411983
H    4.86172819   2.87915897  -1.52183950
H    5.90644741   1.44887936  -1.74845934
H    7.35959721   2.11835933   0.18229994
H    6.78797722   3.76431870  -0.19955993
H    5.77262783   2.31589913   1.95116925

