%chk=mol_1738.chk
# wB97XD/Def2SVP opt pop=full gfinput

C 6 H 11 N 1

1 2
C    2.031985  -0.279831  -0.314772
N    4.704775   0.004535   0.275711
C    5.594912   2.618556   0.000000
C    4.615259   4.310597   2.133236
C    8.323677   2.618556   0.000000
C   10.572753   2.618556   0.000000
C   13.301517   2.618556   0.000000
H    1.523800  -2.282128  -0.209873
H    1.596346   0.379174  -2.225965
H    0.832576   0.717945   1.040899
H    5.719993  -1.100860  -0.934375
H    4.946849   3.387372  -1.813967
H    5.138222   3.567217   3.994730
H    2.557518   4.502650   2.073766
H    5.412951   6.216386   1.984212
H   14.046107   4.547720  -0.021883
H   14.046126   1.634953  -1.659690
H   14.046013   1.672956   1.681705

