%chk=mol_3334.chk
# wB97XD/Def2SVP opt freq pop=full gfinput

C 5 H 8 O 2

1 2
C    1.82266927  -0.45934981  -1.29110956
O    2.08238912   0.15992993  -0.03801998
C    3.02120876   1.25701952  -0.06039998
C    2.47467899   2.61707902  -0.57928979
C    3.17897868   3.25742888   0.62849975
O    3.53184867   4.38617849   0.89716965
C    3.31856871   1.89447927   1.32712948
H    1.10654950  -1.27011955  -1.13660955
H    2.74654913  -0.87522966  -1.70308936
H    1.39420950   0.26529989  -1.98901916
H    3.95050859   0.95948964  -0.56654978
H    1.38692939   2.72630906  -0.55217975
H    2.86247897   2.93335891  -1.54984939
H    4.31358814   1.69150937   1.72812939
H    2.55867910   1.72214937   2.09419918

