%chk=mol_3439.chk
# wB97XD/Def2SVP opt freq pop=full gfinput

C 5 H 10 O 2

1 2
C    1.36560953  -0.21300991   0.18195994
O    2.78534913  -0.16253994   0.18919994
C    3.26221871   1.17242956   0.01642999
C    4.77341795   1.20722961  -0.04067999
C    5.55900812   0.11721996   0.03561999
C    5.36243820   2.58321905  -0.17110993
O    4.96973848   3.14177871  -1.41500950
H    1.05711961  -1.25066960   0.33530986
H    0.97541958   0.12740995  -0.78218967
H    0.95453966   0.39722985   0.99203962
H    2.91673899   1.78367937   0.85848969
H    2.85247898   1.58039939  -0.91483968
H    5.13412809  -0.87778968   0.13976994
H    6.64150763   0.18436994   0.00037000
H    6.45661736   2.57444906  -0.13083994
H    5.00609827   3.23403859   0.63349980
H    5.25355816   2.51215911  -2.10077929

