%chk=mol_3863.chk
# wB97XD/Def2SVP opt freq pop=full gfinput

C 4 H 6 N 2 O 1

1 2
C    1.04571962   1.16137958  -0.19853993
N   -0.18131994   1.34561956   0.56706977
N   -1.33856952   0.81215972   0.12085996
C   -1.42855942  -0.47247982  -0.01284999
O   -0.51212978  -1.47076941   0.14662994
C    0.88100970  -1.33023942   0.13287994
C    1.59131944  -0.21803991  -0.07354997
H    1.79392934   1.85165930   0.20868993
H    0.90602964   1.42949951  -1.25172949
H   -0.31751987   2.34870911   0.70705974
H   -2.39395905  -0.92900968  -0.28329992
H    1.32993960  -2.30918908   0.25038990
H    2.67323899  -0.30554989  -0.12602995

