%chk=mol_0445.chk
# wB97XD/Def2SVP opt freq pop=full gfinput

C 4 H 10 N 2

1 2
C    2.47192907  -0.81456971   0.63531977
C    1.76094937   0.51582980   0.41121984
N    2.72295880   1.61730945   0.19023994
C    1.96829927   2.79633880  -0.27035990
N    3.55104876   1.85826933   1.24501944
C    4.74518824   2.18506908   0.87616962
H    1.73611927  -1.61896932   0.73571974
H    3.07612872  -0.80035967   1.54763949
H    3.12493873  -1.05918956  -0.20853993
H    1.11378956   0.73610973   1.26967955
H    1.11637962   0.39941984  -0.46945983
H    1.41092944   2.57396913  -1.18696952
H    2.65390897   3.61687875  -0.50976980
H    1.26912951   3.15016890   0.49554980
H    5.50832796   2.40645909   1.63847935
H    5.06055784   2.25684905  -0.17935993

