%chk=mol_6303.chk
# wB97XD/Def2SVP opt freq pop=full gfinput

C 6 H 11 N 1

1 2
C    0.88144970   0.09330996   0.18834993
C    2.39169908   0.07692997  -0.01442999
C    3.16210890   1.06168962   0.90780967
C    4.09689856  -0.11926995   1.20046949
N    3.03875875  -1.03163958   0.73001969
C    2.81117892   0.11106996  -1.45017946
C    2.55584908  -0.90109968  -2.29104924
H    0.61522979   0.05957998   1.25166953
H    0.39561984  -0.76293969  -0.29333988
H    0.44208983   1.00713956  -0.22790992
H    2.60217905   1.40420949   1.78701937
H    3.63175869   1.93102932   0.43805984
H    5.00324774  -0.13788995   0.58416975
H    4.37969875  -0.24814992   2.24867916
H    3.37487864  -1.79753923   0.14983995
H    3.32345891   0.99728960  -1.81453931
H    2.03209925  -1.79718924  -1.97221923
H    2.86284876  -0.84647965  -3.33106875

