%chk=mol_6313.chk
# wB97XD/Def2SVP opt freq pop=full gfinput

C 4 H 7 N 1 O 2

1 2
O    0.97111964   0.54566979   0.83585966
C    1.98269916   0.08685996   0.04477998
O    1.89974928  -1.01264966  -0.49619982
C    3.18042898   1.06135964  -0.08324996
C    2.85972905   2.53445911  -0.42231983
N    2.79487872   2.78539896   1.04371965
C    3.74945855   1.65719938   1.22404945
H    1.19362962   1.43757951   1.19085956
H    3.95547843   0.63172972  -0.73099977
H    1.92357922   2.71817899  -0.95665967
H    3.67107868   3.06943893  -0.93046963
H    3.16207886   3.69623876   1.33062959
H    4.80408812   1.95231926   1.16608953
H    3.59384871   1.07131958   2.13409925

