%chk=mol_6500.chk
# wB97XD/Def2SVP opt freq pop=full gfinput

C 5 H 3 N 1 S 1

1 2
C    0.87140965   0.09842996  -0.00365000
C    2.07112908   0.07044997  -0.00066000
C    3.49380875   0.03825998   0.00295000
C    4.33753872   1.12858951   0.00439000
C    5.69581795   0.69756973   0.00823000
N    5.91435766  -0.61481977   0.00964000
S    4.44089842  -1.38489950   0.00630000
H   -0.19405992   0.12023996  -0.00627000
H    4.01211834   2.15992904   0.00288000
H    6.56526709   1.34299946   0.01009000

