%chk=mol_4259.chk
# wB97XD/Def2SVP opt freq pop=full gfinput

C 5 H 3 N 1 O 1

1 2
C    0.96611965  -0.02706999  -0.00176000
C    2.16625905  -0.00728000   0.00030000
C    3.58601856   0.01493999   0.00298000
C    4.41171837   1.10854959   0.00082000
O    5.69810772   0.65227979   0.00518000
C    5.55800772  -0.70435977   0.00975000
N    4.31785822  -1.14132965   0.00864000
H   -0.09837996  -0.05380998  -0.00343000
H    4.27456808   2.17928910  -0.00321000
H    6.47035742  -1.28369951   0.01384000

