%chk=mol_3795.chk
# wB97XD/Def2SVP opt pop=full gfinput

C 5 H 6 O 2

1 2
O    7.845028   4.258706  -5.420377
C    6.227876   5.110141  -4.012947
O    6.295812   5.143929  -1.454654
C    8.522192   4.066388  -0.321348
C   10.759931   5.893734  -0.386506
C   10.291260   8.148102   1.178509
C    9.905150   9.997105   2.436764
H    4.455369   5.989015  -4.655303
H    9.003242   2.286058  -1.267950
H    8.030315   3.589781   1.633536
H   11.153258   6.494630  -2.327255
H   12.447305   4.919297   0.314772
H    9.555098  11.643491   3.542821

