%chk=mol_2234.chk
# wB97XD/Def2SVP opt pop=full gfinput

C 6 H 8 O 1

1 2
C    1.592416  -2.129098   1.721503
C    2.064904  -0.724445  -0.709554
C    1.680817   2.074315  -0.978273
O   -0.631962   3.069539   0.073302
C   -2.710869   1.531151  -0.034355
C   -2.620615  -0.981259  -0.307421
C   -0.240033  -2.365238  -0.456992
H    2.778219  -3.745343   2.143819
H    1.039104  -1.057037   3.378641
H    3.604445  -1.386095  -1.886381
H    3.249989   3.082332  -0.081882
H    1.698675   2.572673  -2.989849
H   -4.436378   2.589019   0.248480
H   -4.369085  -2.056287  -0.325297
H   -0.281380  -4.126954  -1.499611

