%chk=mol_5357.chk
# wB97XD/Def2SVP opt freq pop=full gfinput

C 4 H 8 N 2 O 1

1 2
C    1.73694932   0.18088992   1.29412961
O    1.70357931   1.49155951   0.72097975
C    2.85266900   1.92060935   0.13233995
C    2.68905902   3.32296872  -0.34122986
C    1.50669944   3.92417860  -0.53052980
N    3.90381837   1.16277957   0.06019998
N    4.98720837   1.67611933  -0.57414979
H    0.76717973  -0.00501000   1.76435935
H    2.51045918   0.11658996   2.06598926
H    1.89400935  -0.57278973   0.51639980
H    3.60965872   3.85843849  -0.54372978
H    0.56534976   3.41511869  -0.34951988
H    1.46047950   4.95069790  -0.87838966
H    5.76507807   1.01620960  -0.49650982
H    4.80955791   1.76163936  -1.57849944

