%chk=mol_2596.chk
# wB97XD/Def2SVP opt pop=full gfinput

C 6 H 4 O 1

1 2
C    1.855862  -0.152406  -0.005575
C    4.118507   0.011527   0.000472
C    6.784570   0.205602   0.007464
C    8.370674   2.261775   0.005990
C   10.858537   1.267061   0.015666
C   10.605748  -1.322393   0.021864
O    8.122270  -1.983929   0.016648
H   -0.150101  -0.310199  -0.010526
H    7.808084   4.224729  -0.000850
H   12.617455   2.305485   0.017820
H   11.930937  -2.877448   0.029782

