%chk=mol_6463.chk
# wB97XD/Def2SVP opt pop=full gfinput

C 4 H 5 N 1 O 1 S 1

1 2
C    1.870149  -0.032390  -0.015363
C    4.673312   0.174346  -0.001776
C    6.050223   2.299135   0.006860
S    9.278064   1.655400   0.022337
C    8.702302  -1.634160   0.017253
O   10.318509  -3.271154   0.024510
N    6.127135  -1.974972   0.003950
H    0.972018   1.831712  -0.009279
H    1.211107  -1.060458   1.654682
H    1.226300  -1.042694  -1.702076
H    5.313249   4.204830   0.004668
H    5.413971  -3.745475  -0.000586

