%chk=mol_3652.chk
# wB97XD/Def2SVP opt pop=full gfinput

C 5 H 6 O 2

1 2
O    3.560017  -1.407941  -1.254835
C    3.847331   0.388603   0.185760
C    5.850687   2.408834  -0.121283
C    6.686380   2.794640  -2.861990
C    6.564398   5.582308  -3.081841
C    5.511405   6.503266  -1.001271
O    4.828590   4.764963   0.808519
H    2.730068   0.513401   1.941996
H    7.450094   1.896832   1.094624
H    5.438046   1.898854  -4.245667
H    8.606455   2.084462  -3.157581
H    7.165728   6.669656  -4.699333
H    5.066129   8.440462  -0.553860

