%chk=mol_4316.chk
# wB97XD/Def2SVP opt pop=full gfinput

C 6 H 11 N 1

1 2
C   -1.691324  -0.026815  -2.106289
C   -1.123650   2.007494  -0.068484
C   -2.198073  -0.015552   1.752513
N   -1.261128  -1.966902  -0.076402
C    1.485174  -2.327708   0.347653
C    3.124228   0.019559  -0.150592
C    1.687941   2.461312   0.404023
H   -3.644431  -0.003402  -2.806149
H   -0.444917  -0.115916  -3.755264
H   -2.225549   3.752675  -0.187404
H   -1.403896  -0.083129   3.662554
H   -4.264677   0.010564   1.930620
H    1.780897  -2.982139   2.293447
H    2.141249  -3.869347  -0.871277
H    3.678239   0.022601  -2.149469
H    4.882939  -0.060396   0.937040
H    2.397892   3.981237  -0.809634
H    1.991412   3.053363   2.365975

