%chk=mol_6307.chk
# wB97XD/Def2SVP opt freq pop=full gfinput

C 4 H 4 N 2 O 1

1 2
O    0.78386974   2.20130920   0.24878991
C    1.91215920   1.73409939   0.15655994
N    3.05004883   2.49455905   0.21175992
N    4.27354813   1.90966928   0.10230996
C    5.27002811   2.72139907   0.16820994
C    6.53140736   2.05002928   0.04712998
C    7.59103727   1.49157941  -0.05392998
H    2.11100936   0.65816975   0.02073999
H    2.94210887   3.49553871   0.33565986
H    5.23036766   3.81462836   0.30105990
H    8.52430725   0.98628962  -0.14454995

