%chk=mol_4499.chk
# wB97XD/Def2SVP opt freq pop=full gfinput

C 4 H 10 N 2 O 1

1 2
C    1.49819946  -0.14898995   1.45825946
C    2.92449880  -0.18554993   0.92731965
C    3.26419878   0.98081964  -0.00967000
N    3.14023876   2.30282903   0.65464973
C    4.69643831   0.83912969  -0.57213980
N    5.17002773   1.98160923  -1.16029954
O    5.35863781  -0.19139993  -0.56217980
H    1.28421950  -1.06327963   2.02177930
H    0.77480972  -0.07870997   0.63977975
H    1.34274948   0.69786972   2.13366914
H    3.06449890  -1.13069952   0.38759986
H    3.62396860  -0.21020992   1.77250922
H    2.58726907   0.96653962  -0.87257969
H    3.67846870   2.27356935   1.52286935
H    2.17000914   2.43437886   0.94085962
H    4.71078825   2.85016894  -0.90409964
H    6.13639736   1.99671924  -1.45295954

