%chk=mol_3134.chk
# wB97XD/Def2SVP opt pop=full gfinput

C 5 H 12 O 2

1 2
C    2.760871  -2.055531  -0.999287
C    2.231162   0.252316   0.635250
C    4.418104   0.841079   2.446761
O    4.137631   3.257170   3.619789
C    1.976824   3.485864   5.194007
O    4.649690  -1.156059   4.245307
C    6.957027  -1.011022   5.612203
H    1.179699  -2.392167  -2.288987
H    3.013622  -3.751636   0.155695
H    4.466254  -1.780481  -2.135844
H    0.494428  -0.113856   1.705176
H    1.861701   1.894016  -0.573872
H    6.160488   0.936529   1.326626
H    2.091398   5.303648   6.172280
H    1.915691   1.990826   6.620259
H    0.241129   3.482916   4.072757
H    7.020257  -2.591552   6.942136
H    7.070675   0.750524   6.688950
H    8.573120  -1.169930   4.331196

