%chk=mol_5009.chk
# wB97XD/Def2SVP opt pop=full gfinput

C 4 H 8 N 2 O 1

1 2
C    1.949026   0.026947   0.198554
N    4.627259   0.116785  -0.362109
O    5.858604   2.091417   0.922697
C    8.278701   2.380771  -0.256568
C    9.827256   0.003307   0.247800
N    8.469752  -2.336779  -0.430480
C    6.056478  -2.049805  -0.605827
H    1.111575   1.909719   0.025833
H    1.627886  -0.665656   2.120235
H    0.969996  -1.222577  -1.129414
H    9.207898   4.033243   0.570414
H    8.036892   2.733886  -2.284906
H   10.307492  -0.110398   2.260377
H   11.599895   0.088515  -0.817401
H    4.894618  -3.714710  -1.073402

