%chk=mol_1934.chk
# wB97XD/Def2SVP opt freq pop=full gfinput

C 5 H 6 N 2

1 2
N    1.04095960   0.05282998   0.29440990
C    2.41943908   0.08416997   0.09440996
C    3.09620881   1.29426944   0.03149999
C    4.47597790   1.28459954  -0.15267994
C    5.13438797   0.06739997  -0.26129991
C    4.37909842  -1.08908963  -0.17790994
N    3.03789878  -1.10370958  -0.00200000
H    0.55642980   0.59763980  -0.40857986
H    0.76945972  -0.92696965   0.26264989
H    2.56087899   2.23205924   0.13655995
H    5.02887821   2.21784925  -0.20245993
H    6.20881748   0.01971999  -0.40099984
H    4.84412861  -2.06770921  -0.25061992

