%chk=mol_6993.chk
# wB97XD/Def2SVP opt freq pop=full gfinput

C 5 H 10 N 2

1 2
C    2.85512900  -0.56480980   1.37639952
C    2.46774912   0.11242995   0.07509997
C    3.04909873   1.49741948   0.01676999
N    4.21135855   1.72935939  -0.53712982
C    4.40243816   3.19894886  -0.36967987
C    3.04355884   3.76702857   0.05607998
N    2.38576913   2.57674909   0.53910977
H    2.43743896  -1.57521939   1.42009950
H    2.48307920  -0.00215000   2.23908925
H    3.94351840  -0.63851976   1.47255945
H    1.37763953   0.17635994  -0.00691000
H    2.83854914  -0.46818984  -0.77611971
H    5.16124821   3.37085867   0.40236986
H    4.74692822   3.65076852  -1.30462945
H    2.50452900   4.17485809  -0.80526966
H    3.13515902   4.53639841   0.82711965
H    1.37317955   2.55656910   0.54166979

