%chk=mol_0095.chk
# wB97XD/Def2SVP opt pop=full gfinput

C 3 H 9 N 1 O 1

1 2
C    1.679475  -0.032106   0.042670
C    4.548023   0.020012  -0.050512
O    5.362154  -1.104564  -2.368413
C    5.590226   2.729766   0.098133
N    8.345314   2.701137  -0.261028
H    0.970601   0.794781   1.799662
H    0.989007  -1.978090  -0.098549
H    0.866477   1.002500  -1.555282
H    5.314874  -1.122573   1.498118
H    7.049907  -0.397372  -2.655330
H    5.117397   3.600476   1.914122
H    4.772069   3.884634  -1.412703
H    9.170917   1.791536   1.226924
H    8.999141   4.514764  -0.193924

