%chk=mol_5564.chk
# wB97XD/Def2SVP opt freq pop=full gfinput

C 5 H 9 N 1 O 1

1 2
N    0.92929965   0.08907997   0.14916995
C    2.38368917   0.08703996  -0.06293998
C    3.07367897   1.04789960   0.91460967
O    3.98271847  -0.00626000   1.34246957
C    3.06979871  -1.00918961   0.79047972
C    3.67307878  -2.12031913   0.00510000
C    4.98232841  -2.17682934  -0.26371992
H    0.45281982  -0.68640971  -0.31082988
H    0.47047985   0.93486965  -0.18843994
H    2.70755911   0.17598994  -1.10413957
H    2.48698902   1.42103946   1.76048934
H    3.61152864   1.87631929   0.44555983
H    2.45598912  -1.41768956   1.60566938
H    3.00653887  -2.90369892  -0.34154987
H    5.67220783  -1.41105950   0.08090997
H    5.39904785  -3.00247884  -0.83208972

