%chk=mol_0954.chk
# wB97XD/Def2SVP opt freq pop=full gfinput

C 4 H 7 N 1 O 1

1 2
C    0.98002964   0.10951996  -0.20974992
C    2.44115901   0.17767994   0.07050997
N    3.35910869  -0.74746972  -0.58802980
C    3.40285873   0.67009974  -0.98078966
C    4.62303829   1.39891946  -0.57107979
O    4.67404795   2.62049890  -0.64605975
H    0.50809979   1.06692958   0.03168999
H    0.51294982  -0.66442972   0.40718985
H    0.76758975  -0.11719996  -1.25982952
H    2.65173888   0.40170985   1.11040962
H    2.87720895  -1.30047953  -1.30001950
H    3.02437901   0.90860969  -1.96772921
H    5.47473812   0.79824972  -0.20992993

