%chk=mol_1796.chk
# wB97XD/Def2SVP opt pop=full gfinput

C 5 H 12 N 2

1 2
C    2.311154   0.460659   1.037913
N    4.855236   0.536380  -0.014419
C    6.030683   3.017364   0.436016
C    8.698164   3.133657  -0.726524
N    9.793978   5.659654  -0.346821
C   11.736390   5.747356   1.613108
C   12.431488   5.809491  -1.145363
H    1.483832  -1.404955   0.698670
H    1.081717   1.869997   0.150195
H    2.333528   0.770385   3.081066
H    4.756724   0.224443  -1.914519
H    6.159562   3.364128   2.474804
H    4.855991   4.509113  -0.395784
H    8.558079   2.779976  -2.766313
H    9.867110   1.612220   0.067709
H   12.144722   4.054823   2.688551
H   11.855990   7.495410   2.670637
H   13.011615   7.599798  -1.952692
H   13.298589   4.152787  -1.978638

