%chk=mol_3987.chk
# wB97XD/Def2SVP opt freq pop=full gfinput

C 5 H 8 N 2

1 2
C   -1.01821959   0.04042999  -1.01584959
C   -0.57990980   1.04410958   0.09290996
C   -1.01626968  -0.06211998   1.10379958
C   -0.54478979  -1.05120957  -0.00406000
N    0.92758965  -1.16310954  -0.03086999
C    1.50649941  -0.00658000   0.01248999
N    0.85092974   1.19098949   0.12906995
H   -2.09652925   0.03222999  -1.21591949
H   -0.49081981   0.09354996  -1.97306919
H   -1.10697961   1.99820924   0.14718994
H   -0.48671982  -0.10146996   2.06048918
H   -2.09399915  -0.08976997   1.30440950
H   -1.05244958  -2.01665926  -0.05005998
H    2.60242915   0.09116997  -0.05373998
H    1.25048947   1.97885919  -0.36761987

