%chk=mol_6074.chk
# wB97XD/Def2SVP opt freq pop=full gfinput

C 5 H 7 N 1 O 1

1 2
O    1.39752948   0.21796992   0.75650966
C    2.41738892  -0.04965998   0.14915995
N    2.78451896  -1.26250958  -0.37414986
C    4.05642843  -1.25979948  -1.05396962
C    4.54883814   0.15060994  -0.91539967
C    3.83957839   1.31579947  -1.55763936
C    3.49906874   0.91688967  -0.14482994
H    2.17376924  -2.06319928  -0.28805989
H    4.71648836  -1.97611928  -0.55726981
H    3.90634871  -1.54773939  -2.09798932
H    5.58647776   0.24122992  -0.63195974
H    4.39573812   2.23524928  -1.69904935
H    3.10856867   1.11954951  -2.33417916
H    3.81559873   1.55390942   0.66963971

