%chk=mol_4186.chk
# wB97XD/Def2SVP opt freq pop=full gfinput

C 5 H 11 N 1 O 1

1 2
C    1.04058957  -0.01025000  -0.02834999
C    2.53316903   0.05416998   0.01248000
O    3.08714890   0.00121000   1.33494949
C    3.35245872  -0.61271977  -1.05833960
C    3.27195883   0.89497966  -0.99892962
C    4.45732832   1.71224940  -0.60611975
N    5.24289799   1.96250927  -1.80787933
H    0.65742975   0.02584999  -1.05308962
H    0.61093980   0.83092970   0.52417982
H    0.68890977  -0.93847966   0.43161985
H    2.89095902  -0.85046971   1.76218927
H    2.84008908  -1.10741961  -1.87510931
H    4.28235817  -1.08978963  -0.76888967
H    2.67577910   1.40046942  -1.75222933
H    5.08092833   1.20690954   0.13884994
H    4.12367868   2.66396904  -0.18064992
H    5.58889771   1.07241964  -2.16116929
H    6.06663752   2.50241899  -1.55092943

