%chk=mol_3823.chk
# wB97XD/Def2SVP opt pop=full gfinput

C 4 H 4 N 2 O 1

1 2
C    3.402282   0.862395  -1.501104
C    4.786336   0.144318   0.969959
C    6.289991   2.489563   0.619131
N    6.781547   4.521964   1.992584
O    6.120483   6.518327   0.326847
N    4.732970   5.587221  -1.771751
C    5.076069   3.115743  -1.592850
H    1.384451   1.299943  -1.397566
H    3.706339  -0.464816  -3.060241
H    5.912084  -1.587748   0.832254
H    3.687460   0.076496   2.719240

