%chk=mol_0705.chk
# wB97XD/Def2SVP opt pop=full gfinput

C 5 H 6 O 1

1 2
C    1.889726   0.000000   0.000000
C    4.618491   0.000000   0.000000
C    6.867567   0.000000   0.000000
C    9.602379   0.040950   0.001757
C   10.923562  -2.466811  -0.011263
O   10.720416   2.066302   0.008523
H    1.145023   1.929127   0.022072
H    1.145098  -0.983735   1.659633
H    1.145098  -0.945487  -1.681724
H    9.571179  -4.029425   0.018689
H   12.130152  -2.605725   1.659595
H   12.073253  -2.618480  -1.720539

