%chk=mol_6731.chk
# wB97XD/Def2SVP opt pop=full gfinput

C 7 H 10

1 2
C    1.234671  -0.180677   0.309159
C    3.878171   0.725504  -0.176425
C    1.685617   2.546123  -0.416496
C    1.352288   4.661841   1.485155
C    0.588310   6.900883  -0.085094
C    0.347710   6.290143  -2.532422
C    0.913172   3.544295  -2.987468
H    0.710443  -0.603749   2.244031
H    0.385107  -1.432412  -1.072571
H    4.811866   0.089195  -1.885758
H    5.137258   0.916914   1.428935
H    3.110848   5.062047   2.498029
H   -0.136438   4.214600   2.851124
H    0.280020   8.765854   0.689353
H   -0.182302   7.590614  -4.016424
H   -0.778662   2.580723  -3.688084
H    2.436216   3.344721  -4.372637

