%chk=mol_6792.chk
# wB97XD/Def2SVP opt freq pop=full gfinput

C 5 H 6 N 2

1 2
C    1.03248966  -0.01267000   0.06084998
C    2.52507901   0.02071999  -0.00967000
C    3.22128892   1.22518957  -0.05567998
N    4.57192802   1.29252958  -0.13428995
C    5.20572805   0.10030996  -0.17063993
C    4.52311802  -1.10305953  -0.13107994
N    3.17401886  -1.16947961  -0.05114998
H    0.61181980   0.98390961   0.23092991
H    0.71100974  -0.65937978   0.88410968
H    0.62450975  -0.40395987  -0.87678969
H    2.71062899   2.18122911  -0.02977999
H    6.28687763   0.13664995  -0.23404992
H    5.04475784  -2.05213928  -0.16355994

