%chk=mol_2845.chk
# wB97XD/Def2SVP opt pop=full gfinput

C 6 H 12 O 1

1 2
C    6.561866  -1.271956  -2.305844
C    5.657405   0.224386  -0.015628
C    6.233658   3.086433  -0.106222
C    5.052070   4.360807  -2.425256
C    5.186788   4.337262   2.299135
C    9.090301   3.470066  -0.070336
O   10.288690   4.597383  -1.706139
H    6.154536  -3.283078  -2.035046
H    8.602071  -1.076842  -2.583804
H    5.601073  -0.674217  -4.035851
H    6.529986  -0.606678   1.672597
H    3.612476  -0.063514   0.179940
H    5.887310   3.679164  -4.191186
H    5.348454   6.411066  -2.380072
H    3.011241   4.020317  -2.505834
H    6.006929   3.496050   4.005350
H    3.129651   4.133908   2.416090
H    5.631781   6.360062   2.344527
H   10.084807   2.645919   1.569512

