%chk=mol_5925.chk
# wB97XD/Def2SVP opt freq pop=full gfinput

C 4 H 4 N 2 O 1

1 2
O    0.62657976  -1.02382958  -0.73830974
C   -0.44433984  -1.35186958   0.03530999
N   -1.39572954  -0.56245983   0.41365984
C   -1.36207950   0.74561971   0.00942000
C   -0.29280990   1.52983940  -0.15052995
C    1.05634964   1.01559961   0.14260995
N    1.52579939  -0.17355993  -0.05274998
H   -0.44808981  -2.43003917   0.25498989
H   -2.34593916   1.18544960  -0.14533995
H   -0.38347986   2.57427907  -0.41705987
H    1.73822927   1.76479924   0.58027977

