%chk=mol_1918.chk
# wB97XD/Def2SVP opt pop=full gfinput

C 5 H 8 N 2

1 2
N    1.926859   0.126612   0.007634
C    4.668833   0.047810  -0.020069
C    5.743898   2.535975   0.867876
C    7.162742   2.172316   2.945441
C    7.227711  -0.462435   3.810519
N    8.337264  -2.402768   2.214268
C    5.636996  -1.882659   1.888006
H    1.249203  -1.576145  -0.579069
H    1.325378   1.408451  -1.293933
H    5.361342  -0.407274  -1.917222
H    5.429372   4.329570  -0.050267
H    8.140052   3.665615   3.945162
H    6.935390  -0.862452   5.794656
H    9.384134  -1.592775   0.811392
H    4.317892  -3.300747   2.529134

