%chk=mol_4313.chk
# wB97XD/Def2SVP opt freq pop=full gfinput

C 5 H 9 N 1 O 1

1 2
C    0.75034970   0.13041995   0.00855000
C    2.21977901  -0.02056999   0.24029993
C    3.13687873   0.87784970  -0.15271994
C    4.61063814   0.73399973   0.08979996
C    5.31171799   0.65522981  -1.24039960
N    6.10356760   1.59999931  -1.63525939
O    6.62210751   1.26148951  -2.88961887
H    0.37837988  -0.71353978  -0.57962978
H    0.50824982   1.05374956  -0.52627981
H    0.22251992   0.14173993   0.96721965
H    2.53023911  -0.92016965   0.76706970
H    2.82050896   1.78239930  -0.67126971
H    4.84346819  -0.17700994   0.64948976
H    4.97792816   1.59496939   0.65726978
H    5.12635803  -0.24409992  -1.85540926
H    7.20200729   2.02061939  -3.08876872

