%chk=mol_6605.chk
# wB97XD/Def2SVP opt freq pop=full gfinput

C 3 H 9 N 1 O 2 S 1

1 2
C    1.46790946   0.09614997   0.97762966
N    2.91141868   0.27990991   0.91544968
C    3.24280882   1.59930933   0.33187988
S    5.00401831   1.93731928   0.04654998
C    5.70369768   1.84935927   1.67666936
O    5.55155754   0.84159970  -0.73437971
O    5.13309813   3.30757880  -0.41439983
H    1.24389946  -0.88299972   1.41191947
H    1.01376963   0.13468994  -0.01781999
H    1.00082958   0.85432971   1.61434948
H    3.31531882  -0.43777984   0.30553988
H    2.88371897   2.40425920   0.98258960
H    2.77175903   1.70834935  -0.65214980
H    5.21091795   2.58801889   2.31140900
H    6.76949787   2.07471919   1.60065949
H    5.56455803   0.84192967   2.07191920

