%chk=mol_5860.chk
# wB97XD/Def2SVP opt pop=full gfinput

C 6 H 13 N 1

1 2
C    1.721540  -0.057315   0.221098
C    4.598101  -0.092861  -0.056711
C    5.354539   0.059148  -2.850066
C    5.963503   1.955337   1.582532
C    7.936170  -0.076307   2.292654
C    5.885344  -2.072009   1.731292
N    6.983105  -4.167281   0.322765
H    1.144683  -0.059432   2.208523
H    0.879875  -1.718838  -0.679886
H    0.913418   1.631287  -0.661140
H    7.407065   0.128142  -3.099075
H    4.572702   1.763908  -3.726672
H    4.637936  -1.574104  -3.898694
H    4.867330   2.628288   3.206865
H    6.710304   3.598964   0.575818
H    9.588792  -0.080351   1.039878
H    8.601183  -0.010223   4.248822
H    4.780818  -2.630669   3.389980
H    8.213317  -3.674440  -1.072873
H    5.674016  -5.317878  -0.495543

