%chk=mol_4484.chk
# wB97XD/Def2SVP opt freq pop=full gfinput

C 4 H 8 N 2 O 1

1 2
C    0.81333965  -0.23513992  -0.48908982
C    2.24183917  -0.23372990  -0.00905000
C    2.87926912  -1.38126957   0.26065990
N    2.94747901   0.94372964   0.03337999
C    2.38299894   1.94640934   0.62601978
N    2.95794892   3.18878889   0.74618971
O    4.35582876   3.15014887   0.64288980
H    0.69846970   0.42152983  -1.35669959
H    0.13980995   0.10866996   0.30293989
H    0.48674980  -1.23678958  -0.79030973
H    2.38364911  -2.34252906   0.19045994
H    3.92478848  -1.37632954   0.55053979
H    1.38311946   1.90954924   1.09206963
H    2.62398911   3.77933860   1.50405943
H    4.51294804   2.35097909   0.09016997

