%chk=mol_0898.chk
# wB97XD/Def2SVP opt freq pop=full gfinput

C 5 H 6 O 1

1 2
O    2.63725901  -0.55656976   1.35104942
C    2.42670918  -0.02788999   0.04948998
C    2.91469884   1.39698946   0.00000000
C    2.06393933   2.43347907  -0.08388997
C    4.29715872   1.65321946   0.00000000
C    5.46738815   1.87010920   0.00000000
H    2.39284897  -1.49513948   1.31425953
H    1.35817945  -0.09749997  -0.17934993
H    2.96898890  -0.64270973  -0.67690974
H    0.98912966   2.28476930  -0.09179997
H    2.41966915   3.45863867  -0.12917995
H    6.51438761   2.06388927   0.00778000

