%chk=mol_2067.chk
# wB97XD/Def2SVP opt freq pop=full gfinput

C 6 H 11 N 1

1 2
N    0.94027966  -0.05322998   0.03292999
C    2.39720917  -0.08967996   0.06846998
C    2.96346903   1.32318962  -0.05889998
C    4.49281836   1.31130958  -0.01857999
C    5.06330776   2.72413898  -0.13818994
C    6.53273773   2.70480895  -0.10680996
C    7.73399687   2.69244909  -0.08092997
H    0.57732975  -1.00427961   0.08643997
H    0.62694979   0.32060990  -0.86207968
H    2.76511884  -0.72202975  -0.74696976
H    2.72002912  -0.54097980   1.01276958
H    2.58129907   1.95079923   0.75620973
H    2.62700891   1.77618933  -1.00010967
H    4.87715816   0.68521971  -0.83417970
H    4.83312845   0.85215968   0.91855967
H    4.68806791   3.34777880   0.68148977
H    4.72405815   3.18457866  -1.07337964
H    8.79883671   2.68265915  -0.05716998

