%chk=mol_3457.chk
# wB97XD/Def2SVP opt freq pop=full gfinput

C 5 H 8 O 2

1 2
C    4.93919802  -0.79970968  -0.24124992
O    3.52444887  -0.69175971  -0.35287988
C    2.97069907   0.52219981  -0.05424998
C    3.56894875   1.65306938   0.33576986
O    2.84578896   2.79280901   0.59291983
C    3.50206876   3.93183851   0.98234963
C    2.84843898   5.06648827   1.23611951
H    5.22265816  -1.81927943  -0.51826978
H    5.26402760  -0.62591976   0.78971970
H    5.44004822  -0.11066996  -0.92915964
H    1.89471924   0.46476984  -0.18017992
H    4.63471794   1.75325930   0.47295982
H    4.57633829   3.85151863   1.06946957
H    1.76882923   5.12040806   1.14063966
H    3.37944865   5.96068764   1.54298937

