%chk=mol_4019.chk
# wB97XD/Def2SVP opt pop=full gfinput

C 4 H 5 N 1 O 2

1 2
C    1.844070   0.044446   0.042009
C    4.623990   0.116766  -0.129390
C    6.242313   2.041698  -0.246137
N    8.694196   1.265946  -0.398789
O    8.715492  -1.375494  -0.119487
C    6.231448  -2.167497  -0.061322
O    5.488804  -4.338963   0.103349
H    1.043960   1.951577   0.092200
H    1.243440  -0.942350   1.757351
H    1.043507  -0.939326  -1.591376
H    5.811645   4.040064  -0.220059
H    9.909950   2.175264   0.788677

