%chk=mol_4702.chk
# wB97XD/Def2SVP opt freq pop=full gfinput

C 4 H 10 N 2 O 1

1 2
C    0.67332977  -0.37266988  -0.10175996
C    2.19645905  -0.23892991  -0.04123998
N    2.78520894  -1.07023954  -1.10514963
C    2.67057896   1.20626962  -0.22783992
C    2.31868911   2.10983920   0.93529963
N    2.68267894   3.41426873   0.75217974
O    1.76172936   1.75487936   1.96454930
H    0.18966994   0.17125994   0.71508974
H    0.37005985  -1.42238939  -0.01236000
H    0.27247992   0.01421000  -1.04548955
H    2.54951906  -0.62224978   0.92315966
H    2.40949917  -0.78863972  -2.01049924
H    2.48949885  -2.03829932  -0.97386968
H    2.24874926   1.63582933  -1.14503956
H    3.76458859   1.22486961  -0.32226989
H    3.27898884   3.71110845  -0.00740000
H    2.51813912   4.05483866   1.51839948

