%chk=mol_1653.chk
# wB97XD/Def2SVP opt pop=full gfinput

C 5 H 8 N 2

1 2
C    2.172524  -0.023187  -0.320384
N    4.902555   0.033675  -0.638066
C    6.163568  -2.279936   0.275692
C    8.643022  -1.261260   1.136103
C   10.736554  -2.422024   1.935987
C    8.310052   1.491088   0.941310
N    6.147600   2.200567   0.032144
H    1.364836  -1.738019  -1.150295
H    1.303042   1.591187  -1.279382
H    1.647010   0.057826   1.680042
H    6.371514  -3.648268  -1.259899
H    5.162241  -3.134054   1.873966
H   10.829756  -4.466954   2.035613
H   12.395110  -1.363759   2.510728
H    9.804031   2.780033   1.589562

