%chk=mol_6011.chk
# wB97XD/Def2SVP opt pop=full gfinput

C 4 H 4 N 2 O 1

1 2
O    1.878652  -0.109736   0.276486
C    4.177221  -0.018614   0.081447
C    5.583838   2.369679  -0.107752
C    8.082094   2.101640  -0.310898
N    9.295374  -0.183228  -0.345763
N    8.139050  -2.471856  -0.178371
C    5.692914  -2.426786   0.026929
H    4.585213   4.145398  -0.076024
H    9.330561   3.722685  -0.464381
H   11.219398  -0.164047  -0.508506
H    4.584664  -4.179829   0.174157

