%chk=mol_0618.chk
# wB97XD/Def2SVP opt freq pop=full gfinput

C 5 H 10 O 1

1 2
C    0.99375963  -0.07658997   0.20122993
C    2.48288918   0.06401998  -0.07370997
C    2.81264901   0.08340997  -1.56063950
C    3.20286870   1.13433957   0.76953971
C    4.07225847  -0.02259999   1.25096953
O    3.22396898  -0.99439967   0.59257978
H    0.79004967  -0.15463993   1.27478957
H    0.58804983  -0.97306967  -0.27892992
H    0.44358984   0.79061973  -0.18126994
H    3.89416862   0.12529996  -1.73126936
H    2.36384916   0.95513964  -2.04710937
H    2.43385911  -0.81553966  -2.05755925
H    2.60060906   1.59817946   1.55669940
H    3.73332858   1.91053927   0.21219991
H    5.08890772  -0.04671998   0.84463966
H    4.09852839  -0.17201993   2.33259916

