%chk=mol_6702.chk
# wB97XD/Def2SVP opt pop=full gfinput

C 4 H 6 O 2 S 1

1 2
O    1.798282   0.011452  -0.123135
S    4.522946   0.064874  -0.380496
O    5.747073   0.307024  -2.815031
C    5.819204  -2.609183   1.241304
C    6.370286  -1.687355   3.915040
C    6.644277   1.134781   3.802526
C    5.769618   2.254141   1.706801
H    7.565254  -3.141348   0.269834
H    4.481353  -4.178865   1.188279
H    8.087064  -2.579098   4.644871
H    4.812736  -2.167195   5.192665
H    7.452210   2.189078   5.362400
H    5.766500   4.246366   1.284504

