%chk=mol_3596.chk
# wB97XD/Def2SVP opt freq pop=full gfinput

C 5 H 6 O 2

1 2
O    1.05370963   0.06420998  -0.19264993
C    2.45783901  -0.02245999  -0.02300999
C    2.85949874  -1.32319951   0.66242975
C    3.38426876  -0.83721966   1.98180926
O    3.80082870  -1.55358946   2.87876892
C    3.38367867   0.62788975   2.07132912
C    2.86000872   1.05830956   0.92138970
H    0.78138965  -0.66400975  -0.77651966
H    2.94233894   0.09255996  -0.99755961
H    3.67432880  -1.81822932   0.12499996
H    2.02000928  -2.00720930   0.81252968
H    3.73286867   1.18773949   2.91966891
H    2.70729899   2.10395932   0.68922973

