%chk=mol_4382.chk
# wB97XD/Def2SVP opt freq pop=full gfinput

C 6 H 9 N 1

1 2
C   -0.47298980  -1.58514941  -0.27615991
C    0.81261969  -1.21391952   0.48019981
C    1.19134951   0.23717991   0.40021983
N    1.06423962   0.98341966  -0.84435970
C    0.09476997   1.25651944   0.22000991
C   -1.26493955   0.74664974   0.03288999
C   -1.55736935  -0.54626977  -0.19016993
H   -0.84928966  -2.53613901   0.11830996
H   -0.24479991  -1.75250936  -1.33578944
H    1.64179945  -1.83352923   0.11866996
H    0.67774969  -1.46363938   1.54107940
H    2.03600931   0.48321983   1.03052962
H    1.75267935   1.73360944  -0.89605969
H    0.18598993   2.20998907   0.72841972
H   -2.07371926   1.47149944   0.05780998
H   -2.58298898  -0.85622966  -0.36118987

