%chk=mol_5374.chk
# wB97XD/Def2SVP opt freq pop=full gfinput

C 4 H 9 N 1 O 2

1 2
C    2.57334924  -1.15303957   0.16692993
O    3.81727862  -0.48963982   0.36541986
C    3.74531865   0.88659966  -0.03146999
C    5.08538771   1.55673945   0.22510992
C    6.12262774   1.09995949  -0.77216971
N    6.45647764  -0.21928991  -0.69405973
O    6.65787745   1.84943926  -1.58048940
H    2.69729900  -2.20239925   0.44494984
H    2.27473903  -1.10248959  -0.88412970
H    1.80099940  -0.71029973   0.80188972
H    2.97084880   1.38439941   0.56405979
H    3.47528887   0.94699967  -1.09234965
H    5.45410776   1.33509946   1.23278952
H    4.98184824   2.64332891   0.12909995
H    5.83318758  -0.86096966  -0.21215992
H    7.08377743  -0.58805978  -1.39524949

