%chk=mol_5692.chk
# wB97XD/Def2SVP opt pop=full gfinput

C 5 H 11 N 1 O 1

1 2
N    1.442617   0.471090  -0.441024
C    4.087024   0.392175  -1.248448
C    5.869508   0.863302   0.978576
C    8.596081   0.771859   0.176916
O    9.342353   2.781960  -1.483548
C   10.579386  -0.180166   1.984326
C    9.874122  -1.724073  -0.292038
H    0.313921   0.201747  -1.979356
H    1.035759   2.237549   0.212462
H    4.389550   1.806427  -2.730597
H    4.473020  -1.462516  -2.084349
H    5.510290  -0.543258   2.459781
H    5.484080   2.720469   1.815290
H   10.919178   3.563438  -0.953745
H    9.980759  -0.866798   3.820629
H   12.424043   0.706644   2.000313
H   11.211953  -1.838817  -1.838968
H    8.798527  -3.441531   0.006198

