%chk=mol_2785.chk
# wB97XD/Def2SVP opt freq pop=full gfinput

C 6 H 14 O 1

1 2
C    3.63641882  -1.39041948   1.91788936
C    2.97330880  -0.94034964   0.61521977
C    1.45113945  -1.02575958   0.75559974
C    3.37945867   0.48888984   0.21061993
C    4.87373781   0.64262974  -0.07484997
C    5.20795822   2.04963923  -0.55547976
O    6.60178757   2.15227914  -0.81488967
H    4.72094822  -1.47765946   1.80313921
H    3.26458859  -2.37425900   2.22383904
H    3.43383861  -0.68509978   2.73078895
H    3.27666879  -1.63166940  -0.18129994
H    1.08591962  -0.35325986   1.53932941
H    1.13959956  -2.04423928   1.01062965
H    0.95763963  -0.75263977  -0.18304993
H    3.08541894   1.19313955   0.99949962
H    2.81836891   0.77393973  -0.68887973
H    5.19351768  -0.08478997  -0.83083969
H    5.46495819   0.42775983   0.82237971
H    4.93858814   2.80116892   0.19387992
H    4.67485809   2.28288913  -1.48237944
H    7.06861734   1.96338928   0.01697999

