%chk=mol_1662.chk
# wB97XD/Def2SVP opt freq pop=full gfinput

C 5 H 10 N 2

1 2
C    0.96281964  -0.04075998  -0.01814999
N    2.40452909   0.03637999  -0.15844993
C    3.05309868   1.27054942   0.25266990
C    4.46521807   1.27826953  -0.30834988
C    5.19071817   0.01931999   0.14294995
N    4.44490862  -1.20881951  -0.15027994
C    3.16913891  -1.09793961  -0.25340989
H    0.49389979   0.93369967  -0.18972993
H    0.69538975  -0.38176984   0.98650962
H    0.54135984  -0.73921973  -0.74827969
H    2.50548887   2.14113927  -0.12508994
H    3.07185888   1.33405948   1.34731948
H    5.00594807   2.17050910   0.02591999
H    4.42804813   1.30814946  -1.40535951
H    5.39577818   0.06102998   1.21852946
H    6.16015768  -0.03401999  -0.36534986
H    2.57372928  -2.00522923  -0.45250982

