%chk=mol_2723.chk
# wB97XD/Def2SVP opt pop=full gfinput

C 6 H 8 O 1

1 2
C    8.456260  -1.790516  -4.726583
C    7.806383  -1.005145  -2.695619
C    7.021391  -0.066481  -0.200046
C    8.089691   2.555666   0.371879
C   10.914284   2.550658   0.585966
C   12.558780   3.600609  -1.487460
O   12.006507   5.025840   0.751223
H    9.032664  -2.493342  -6.521842
H    7.617864  -1.407355   1.262488
H    4.952670   0.022903  -0.129030
H    7.305851   3.207489   2.176284
H    7.468954   3.906291  -1.074196
H   11.658835   1.113975   1.834886
H   11.686993   4.210253  -3.235419
H   14.453249   2.856208  -1.692647

