%chk=mol_5553.chk
# wB97XD/Def2SVP opt freq pop=full gfinput

C 4 H 10 N 2 O 1

1 2
N    1.05097961  -0.13814995  -0.09815996
C    2.51715899  -0.07489997  -0.02060999
C    3.33528852  -0.71431971  -1.12248957
N    2.64524889  -1.37308943  -2.23931909
C    3.25904870   0.78497970  -1.00935960
C    4.46036816   1.55883944  -0.58609980
O    5.23634815   1.89119935  -1.72884941
H    0.63373977   0.66116971   0.37874985
H    0.70431978  -0.96662962   0.38469985
H    2.92395878  -0.14108995   0.98627961
H    4.26716852  -1.19111955  -0.82762969
H    1.71963930  -0.94054961  -2.32836914
H    2.43886924  -2.34092903  -1.99424922
H    2.67530894   1.33253944  -1.74060929
H    5.09372807   0.99781960   0.10914996
H    4.15959835   2.49038911  -0.09685996
H    5.28050804   1.09317970  -2.28530931

