%chk=mol_1187.chk
# wB97XD/Def2SVP opt freq pop=full gfinput

C 6 H 15 N 1

1 2
C    0.94163966   1.48652935   0.98047960
C    2.42732906   1.76676941   1.15869963
C    3.24008894   1.23112953  -0.02691999
C    4.76771832   1.47211945   0.05289998
C    5.38664818   0.80057973   1.28650951
C    5.43142796   0.90601969  -1.21411955
N    5.04633808   2.91152883   0.12087996
H    0.37853986   1.87032926   1.83699930
H    0.75201970   0.41110986   0.90419966
H    0.55646980   1.96928930   0.07660997
H    2.75728893   1.29770958   2.09189916
H    2.57180882   2.84702897   1.26487958
H    2.85042882   1.68526936  -0.94904965
H    3.05446887   0.15258995  -0.11877996
H    5.02377796   1.24221945   2.22092915
H    6.47895718   0.89808965   1.28797948
H    5.15135765  -0.26950991   1.30893958
H    5.03928804   1.38335943  -2.11982918
H    5.25115776  -0.17147994  -1.30302954
H    6.51713753   1.05879962  -1.20218956
H    4.68873835   3.37335896  -0.71460968
H    6.05319786   3.07144880   0.12500995

