%chk=mol_4708.chk
# wB97XD/Def2SVP opt freq pop=full gfinput

C 4 H 10 N 2 O 1

1 2
C    1.80582941  -0.86688966   0.12240995
C    3.13940883  -0.48968983   0.74847972
N    3.76685858   0.57800978  -0.03178999
C    5.06618786   0.95758963   0.57281977
C    5.77889776   2.01383924  -0.27922991
N    5.21406841   2.26426911  -1.49768949
O    6.79559708   2.59653926   0.08196997
H    1.33550954  -1.67230940   0.69528979
H    1.93729925  -1.21776962  -0.90664971
H    1.11747956  -0.01540999   0.10988995
H    3.78533864  -1.37489939   0.76781976
H    2.97365880  -0.16454993   1.78223932
H    3.16262865   1.40249944  -0.01128000
H    5.72851753   0.08747997   0.63253981
H    4.91101837   1.37778950   1.57221949
H    4.52634859   1.60307944  -1.84289932
H    5.70982790   2.86206889  -2.14293909

