%chk=mol_6370.chk
# wB97XD/Def2SVP opt freq pop=full gfinput

C 4 H 4 N 2 O 1

1 2
O    1.03832960  -0.22923991   0.15116994
N    2.43822908  -0.17447995   0.09864996
C    2.87385893   1.03341961  -0.09139997
C    2.05932927   2.27398920  -0.24643990
C    2.58833909   3.48900867  -0.44052982
C    4.32637835   1.03557956  -0.13792995
N    5.48928785   1.07707965  -0.18097992
H    0.86938971  -1.18066955   0.29531989
H    0.98287964   2.15111923  -0.19423991
H    3.65706849   3.67282867  -0.50137985
H    1.93965936   4.35454798  -0.54614979

