%chk=mol_7157.chk
# wB97XD/Def2SVP opt freq pop=full gfinput

C 6 H 13 N 1

1 2
C    1.75959933  -0.64007974  -1.03058958
C    2.79613900  -0.29341987   0.02709999
C    3.00765896   1.19084954   0.11795995
C    4.19072866   1.79002941  -0.10647996
C    4.50436831   3.25997877  -0.04571998
C    3.32795858   4.18758821   0.26334989
N    5.55951786   3.45105863   0.94853961
H    1.61019933  -1.72369933  -1.07292950
H    2.07867908  -0.30283988  -2.02259922
H    0.79348969  -0.17491995  -0.80679971
H    3.73343849  -0.81318974  -0.20290993
H    2.45755911  -0.66062975   1.00263965
H    2.13633919   1.77812934   0.39447984
H    5.04230833   1.16552961  -0.37676987
H    4.90891790   3.54643869  -1.02399957
H    2.89008904   3.98039842   1.24665952
H    2.53914881   4.08317852  -0.49000981
H    3.64712858   5.23619795   0.25640988
H    5.18614817   3.22135878   1.86900938
H    5.80875778   4.43761826   0.98850960

