%chk=mol_1185.chk
# wB97XD/Def2SVP opt pop=full gfinput

C 6 H 9 N 1

1 2
C    2.449539  -0.644415  -0.864399
C    5.268897  -0.819782  -0.333253
C    6.463865   1.804972  -0.097699
C    9.264136   1.664641   0.430669
C   10.205692   2.054227   2.757791
C   10.946787   1.174238  -1.627735
N   12.304725   0.780816  -3.302240
H    1.627678  -2.537449  -0.999665
H    2.092551   0.340037  -2.648111
H    1.471038   0.373429   0.647685
H    6.175587  -1.890576  -1.857865
H    5.561029  -1.888876   1.418391
H    5.506020   2.858570   1.411418
H    6.144350   2.888106  -1.838212
H    8.981396   2.449482   4.356896
H   12.225640   1.977315   3.131333

