%chk=mol_5116.chk
# wB97XD/Def2SVP opt freq pop=full gfinput

C 4 H 8 N 2 O 1

1 2
C    1.31358945  -0.27924991   0.40398985
N    2.56004906   0.45076984   0.21881992
C    2.49793887   1.68766928  -0.12162995
C    1.23182952   2.47448897  -0.35227987
N    3.65558863   2.40894914  -0.29940987
C    4.92958784   1.92772937  -0.14622994
O    5.91976738   2.63024902  -0.31410986
H    1.54195940  -1.27946949   0.78528970
H    0.78164971  -0.40373987  -0.54448980
H    0.66053981   0.20494992   1.13703966
H    0.60488975   1.96241915  -1.08725953
H    1.44368947   3.48120880  -0.72353971
H    0.68298978   2.56202912   0.58973980
H    3.61503863   3.38349867  -0.55999976
H    4.99053812   0.86533964   0.13873994

