%chk=mol_4847.chk
# wB97XD/Def2SVP opt freq pop=full gfinput

C 5 H 13 N 1 O 1

1 2
C    0.83551973  -0.06342997  -0.03413999
C    2.35463905   0.02926999  -0.01668999
O    2.85365891  -0.69994974  -1.14560950
C    2.94001913   1.47623944  -0.04652998
C    2.43087912   2.28899908  -1.24715948
C    2.63997889   2.22878909   1.25620949
N    4.41209841   1.34818947  -0.20273992
H    0.38297984   0.46631980   0.80863971
H    0.52468979  -1.11330962   0.01784999
H    0.41864982   0.32823989  -0.96805960
H    2.72235918  -0.49167982   0.87623966
H    3.75399852  -0.33650988  -1.28494954
H    2.62012911   1.77471936  -2.19597912
H    2.91947889   3.26940870  -1.30028951
H    1.35414946   2.47389913  -1.17501950
H    2.99155903   1.66952932   2.13042927
H    1.56610942   2.40159917   1.37932944
H    3.12955880   3.20960879   1.27128959
H    4.80463791   0.91613966   0.63599974
H    4.82841825   2.27975917  -0.24992990

