%chk=mol_3772.chk
# wB97XD/Def2SVP opt freq pop=full gfinput

C 5 H 8 O 2

1 2
O    0.93575960  -0.01603999   0.05634998
C    2.35462928  -0.11783995   0.06140998
C    2.94541883   1.28452945   0.05561998
C    4.47132826   1.28444946   0.01261000
O    4.92494822   2.62414908  -0.16683993
C    5.06560802   0.74698973   1.24643946
C    5.55367804   0.31269988   2.25329924
H    0.58265978  -0.92243963   0.07023997
H    2.66409898  -0.67574972  -0.82808971
H    2.65264893  -0.67566973   0.95416963
H    2.58124924   1.84392941   0.92823964
H    2.55346894   1.83994937  -0.80700970
H    4.82035828   0.71013969  -0.85216969
H    4.70733833   3.10798883   0.64834976
H    5.99345779  -0.06974997   3.14642882

