%chk=mol_2595.chk
# wB97XD/Def2SVP opt pop=full gfinput

C 6 H 6 O 1

1 2
C    5.284033  -2.043323   0.760199
C    4.154865   0.175556   0.323691
C    5.561748   2.461992   0.198705
C    4.682892   4.900098  -0.235063
C    6.780073   6.558143  -0.189634
C    8.846942   5.065902   0.268984
O    8.145853   2.615664   0.504746
H    4.187709  -3.773556   0.850793
H    7.312616  -2.198092   1.037025
H    2.122408   0.256946   0.056106
H    2.729256   5.410456  -0.549381
H    6.782057   8.582607  -0.457333
H   10.845497   5.434342   0.472677

