%chk=mol_1734.chk
# wB97XD/Def2SVP opt freq pop=full gfinput

C 6 H 11 N 1

1 2
C    1.09840953  -0.25953990   0.02505999
N    2.53265905  -0.02297999   0.01313999
C    2.96069884   1.38567948   0.00000000
C    2.46909904   2.11805916  -1.26199949
C    2.46988893   2.13450933   1.25064945
C    4.40469837   1.38567948   0.00000000
C    5.59485769   1.38567948   0.00000000
H    0.91865963  -1.33969951   0.04694998
H    0.60441977   0.12988995  -0.86963969
H    0.61832976   0.15478995   0.91551965
H    2.94111896  -0.49261981  -0.79449970
H    2.76658893   1.58887935  -2.17625928
H    2.89451885   3.12820888  -1.32438958
H    1.37895942   2.22813892  -1.27620947
H    2.76015902   1.61291933   2.17236924
H    1.38015950   2.25428915   1.26062953
H    2.90251875   3.14277887   1.30495954
H    6.66013718   1.37905943   0.00618000

