%chk=mol_2835.chk
# wB97XD/Def2SVP opt pop=full gfinput

C 6 H 12 O 1

1 2
C    1.863081  -0.294193   0.109396
C    4.676713   0.322954   0.218509
C    5.433416   3.098263   0.093976
C    3.749311   4.994131  -0.108735
C    8.279911   3.505215   0.183190
C    9.246714   6.190100  -0.241337
O    9.159257   2.693994   2.598581
H    1.586198  -2.342335   0.212254
H    1.013781   0.365681  -1.658159
H    0.843744   0.556713   1.696199
H    5.603586  -0.671457  -1.347280
H    5.426141  -0.488324   1.972931
H    1.727021   4.664543  -0.183795
H    4.313602   6.963678  -0.208664
H    9.167193   2.286814  -1.238413
H    8.586972   7.477325   1.240832
H    8.668778   6.927282  -2.085388
H   11.315812   6.221168  -0.151102
H    8.120625   3.551854   3.849070

