%chk=mol_3639.chk
# wB97XD/Def2SVP opt freq pop=full gfinput

C 6 H 8 O 1

1 2
O    0.95054966   0.52861983  -0.76554972
C    1.92781925   0.33415985  -0.04728998
C    3.18730879   1.18650949  -0.04423998
C    3.78624845   1.31238949   1.36361945
C    3.40325880   2.70333910   1.87716937
C    3.03188872   3.43462873   0.63285971
C    2.91014886   2.60938907  -0.41150984
H    1.97161925  -0.57157975   0.58212978
H    3.90974855   0.72045976  -0.72185975
H    4.88039780   1.24192953   1.30047953
H    3.45539880   0.53007978   2.05515933
H    4.24334812   3.17804885   2.39270902
H    2.54849911   2.65702891   2.55977893
H    2.84365892   4.49942827   0.59768981
H    2.60706902   2.91531873  -1.40482950

