%chk=mol_1231.chk
# wB97XD/Def2SVP opt freq pop=full gfinput

C 5 H 10 N 2

1 2
C    3.42948866  -0.37491983  -1.52199948
C    2.96667886   0.16024993  -0.17404993
C    3.27609873   1.62352931   0.00039000
C    2.31218910   2.55352902   0.10958996
C    4.70250845   2.08279920   0.06949998
N    5.07750797   3.34168887  -0.29183990
N    5.67562819   1.31803942   0.45243981
H    3.14866877  -1.42852938  -1.62533939
H    4.51687860  -0.30812988  -1.63349938
H    2.96814895   0.17919993  -2.34754896
H    3.41833878  -0.42263985   0.63576972
H    1.88591933  -0.00898000  -0.09294996
H    1.26186955   2.28268909   0.07395997
H    2.53637910   3.60389853   0.26887989
H    4.57442808   3.73519850  -1.07663953
H    6.08485794   3.39486885  -0.40064985
H    5.33483791   0.39764985   0.73466974

