%chk=mol_1691.chk
# wB97XD/Def2SVP opt pop=full gfinput

C 5 H 6 N 2

1 2
C    1.901140  -0.147002   0.011962
N    4.647196  -0.091160  -0.010299
C    5.716856   2.066208  -0.010299
C    4.677413   4.653753   0.010186
C    6.614967   6.263743  -0.000775
C    8.810017   4.613936  -0.026872
N    8.300244   2.233656  -0.031785
H    1.265247  -2.115189  -0.000529
H    1.107228   0.768419  -1.665907
H    1.136368   0.738184   1.719235
H    2.696337   5.094153   0.029858
H    6.624038   8.292534   0.007389
H   10.718810   5.431149  -0.040478

