%chk=mol_4029.chk
# wB97XD/Def2SVP opt freq pop=full gfinput

C 5 H 7 N 1 O 1

1 2
C    0.93992966  -0.13229994  -0.00424000
C    2.39994907   0.07316997  -0.00469000
C    3.22011876   1.18105960  -0.00096000
C    2.83947897   2.60836887   0.00538000
C    4.51824808   0.62352979  -0.00475000
N    4.49930811  -0.71038973  -0.01041000
O    3.15903878  -1.05621958  -0.01047000
H    0.40486985   0.82197970   0.00800000
H    0.63422978  -0.70409971   0.87726969
H    0.63086981  -0.68339974  -0.89767969
H    3.72286868   3.25472879   0.01218000
H    2.24220920   2.84293890   0.89220965
H    2.24880934   2.85238886  -0.88330966
H    5.47380781   1.12884963  -0.00368000

