%chk=mol_1242.chk
# wB97XD/Def2SVP opt freq pop=full gfinput

C 6 H 13 N 1

1 2
C    0.46507981  -0.49683982  -0.70849973
C    1.91352928  -0.55875975  -0.25004989
C    2.56869888   0.82240969  -0.27707991
C    4.03394842   0.74696976   0.16197994
N    4.62357807   2.09189916   0.16441993
C    6.08003759   2.07997918   0.07090998
C    5.22579813   2.47345901  -1.10846949
H    0.01477999  -1.49396956  -0.67698973
H    0.39469984  -0.12491995  -1.73557937
H   -0.12334995   0.16268994  -0.06265998
H    2.46620893  -1.24677944  -0.90024966
H    1.95273924  -0.96928966   0.76548970
H    2.01627922   1.50208938   0.38365984
H    2.50498915   1.23502958  -1.29168952
H    4.57604790   0.04220999  -0.48308980
H    4.08657837   0.34738988   1.18172956
H    6.59395742   1.12813962   0.04256998
H    6.59206724   2.86576915   0.61070979
H    5.15981817   3.52513862  -1.36050951
H    5.14728832   1.79252934  -1.94700921

