%chk=mol_4934.chk
# wB97XD/Def2SVP opt pop=full gfinput

C 4 H 6 N 2 O 1

1 2
C    0.740451  -1.897285  -0.224235
C    3.399107  -0.955200   0.268228
O    3.468649   1.701075  -0.209155
N    5.931472   2.574109   0.249349
C    5.992869   4.968147  -0.178485
C    8.429634   6.101775   0.225728
N   10.368058   7.090252   0.531051
H    0.602275  -3.929988   0.121509
H    0.181489  -1.512405  -2.179081
H   -0.616637  -0.918464   0.993240
H    4.737562  -1.916938  -0.984906
H    3.927852  -1.316648   2.237114
H    4.394520   6.144539  -0.798220

