%chk=mol_3822.chk
# wB97XD/Def2SVP opt freq pop=full gfinput

C 5 H 5 N 1 O 1

1 2
C    2.12335920   0.60354978   0.84993970
C    2.45864916  -0.04289998  -0.52805984
C    3.40526867   1.08812964  -0.72994971
N    3.67126870   1.99044931  -1.66280937
O    3.68693876   3.21239877  -0.94135964
C    3.21342874   2.99102879   0.33654988
C    3.08762884   1.65231931   0.47764984
H    2.42941904  -0.00053000   1.71082938
H    1.10210967   0.95714962   1.01814961
H    1.66657937  -0.11426996  -1.27902961
H    2.95469880  -1.01749969  -0.45714983
H    2.92205882   3.87540841   0.88167965

