%chk=mol_4443.chk
# wB97XD/Def2SVP opt freq pop=full gfinput

C 4 H 10 N 2 O 1

1 2
C    1.34729958  -0.50678980  -0.10442996
C    2.86358881  -0.40487987  -0.13429995
C    3.32970881   1.04350960  -0.01887999
C    4.84117794   1.16138959  -0.02241999
O    5.61044788   0.21178992  -0.14011994
N    5.27454805   2.47488904   0.12157995
N    6.65526724   2.75918889   0.07605997
H    1.03591967  -1.55249941  -0.19046994
H    0.90000963   0.05049998  -0.93357968
H    0.94621962  -0.10925996   0.83336967
H    3.23798871  -0.84494972  -1.06634963
H    3.28195858  -0.99923962   0.68676972
H    2.95341873   1.48405945   0.91183966
H    2.93863893   1.62966931  -0.85893965
H    4.61170816   3.24743867   0.11298995
H    7.07817745   2.07808924  -0.56949979
H    7.05167723   2.48924923   0.98232967

