%chk=mol_5975.chk
# wB97XD/Def2SVP opt pop=full gfinput

C 5 H 9 N 1 O 1

1 2
O    2.511011   0.300958   1.585877
C    4.513611   0.114215   0.428760
C    5.787381  -2.408097  -0.024037
C    7.537513  -2.424594  -2.306997
C    9.292993  -0.146189  -2.237303
C    7.719153   2.254557  -2.238721
N    5.796867   2.235962  -0.300977
H    4.321085  -3.847331  -0.276165
H    6.853186  -2.874992   1.690001
H    8.642889  -4.174726  -2.331317
H    6.415507  -2.383871  -4.049626
H   10.469612  -0.223668  -0.532374
H   10.564136  -0.164161  -3.870764
H    8.910418   3.917062  -1.933058
H    6.751765   2.483667  -4.055144
H    4.824565   3.851753   0.034072

