%chk=mol_5549.chk
# wB97XD/Def2SVP opt freq pop=full gfinput

C 4 H 4 N 2 O 1

1 2
N    0.99115968   0.07452998  -0.18164994
C    2.34530902  -0.04869998  -0.10032996
C    3.15704894  -1.10125959  -0.04643998
C    4.54174805  -0.60877979   0.04201999
O    5.51255798  -1.34176946   0.11133996
N    4.52276850   0.76260972   0.04129998
C    3.27672887   1.08380961  -0.04566998
H    0.47709981  -0.76336968   0.08167997
H    0.61354977   0.91939968   0.24167991
H    2.91337895  -2.14699912  -0.06217998
H    2.89069891   2.11282921  -0.07722997

