%chk=mol_1348.chk
# wB97XD/Def2SVP opt freq pop=full gfinput

C 5 H 12 N 2

1 2
C    3.42038870  -1.03688955  -1.20408952
C    2.73062897  -0.36380985  -0.02652999
C    2.72201896   1.15739954  -0.13750996
C    4.11465836   1.71901929  -0.03460999
N    4.63953829   2.34881926  -1.03588963
N    5.89711761   2.78919888  -0.79884970
C    6.55307770   3.43045855  -1.93281925
H    3.32780886  -2.12486911  -1.12353969
H    4.48750830  -0.79436970  -1.23228943
H    2.97144890  -0.72749972  -2.15368915
H    3.22407866  -0.67297977   0.90283966
H    1.69432938  -0.71864974   0.02442999
H    2.14097929   1.57845950   0.68988973
H    2.25758910   1.47719944  -1.07629955
H    4.65203810   1.55580950   0.91769964
H    5.92732811   3.42835879  -0.00082000
H    6.61055756   2.74656892  -2.78589892
H    7.57387733   3.71426868  -1.65949941
H    6.01343727   4.33271837  -2.23820901

