%chk=mol_0976.chk
# wB97XD/Def2SVP opt freq pop=full gfinput

C 4 H 5 N 1 O 1

1 2
C    0.99999964   0.00000000   0.00000000
C    2.44399905   0.00000000   0.00000000
C    3.63415861   0.00000000   0.00000000
C    5.07622814   0.01442999  -0.00000000
N    5.68488789  -1.20148957   0.00000000
O    5.69481802   1.06810963  -0.00000000
H    0.60592973   1.02084970   0.01167999
H    0.60594976  -0.52055979   0.87823963
H    0.60594976  -0.50031978  -0.88992965
H    5.16094780  -2.06326914   0.00000000
H    6.69490767  -1.22578955   0.00000000

