%chk=mol_1518.chk
# wB97XD/Def2SVP opt pop=full gfinput

C 6 H 13 N 1

1 2
C    5.277476  -2.773381   1.472399
C    4.246706  -0.228260   2.351178
N    5.649998   1.959230   1.342121
C    4.242568   4.279927   1.933417
C    8.231477   2.081590   2.370019
C    9.794186   4.108680   1.135536
C   11.022074   5.936745   2.385345
H    3.968841  -4.281817   2.012747
H    7.103084  -3.208094   2.335985
H    5.488199  -2.825122  -0.584228
H    4.182021  -0.181187   4.424435
H    2.283110  -0.127859   1.687299
H    2.317957   4.176238   1.175429
H    5.106664   5.936499   1.045075
H    4.117789   4.615656   3.973036
H    9.231104   0.309216   1.985252
H    8.197027   2.317995   4.431049
H    9.913541   4.038420  -0.916064
H   10.956594   6.075829   4.429461
H   12.118871   7.343684   1.369447

