%chk=mol_6775.chk
# wB97XD/Def2SVP opt pop=full gfinput

C 7 H 10

1 2
C   -2.059140  -0.011565  -1.934909
C   -1.164411   1.972893   0.064685
C   -1.960175  -0.063986   2.053131
C   -1.050064  -2.004773   0.009392
C    1.766327  -2.241933  -0.063514
C    3.072147  -0.064005  -0.067331
C    1.707821   2.445343  -0.000680
H   -4.110740  -0.069221  -2.230066
H   -1.139165   0.053649  -3.785613
H   -2.260037   3.725954   0.114858
H   -0.949474  -0.046960   3.856969
H   -3.994617  -0.130807   2.448046
H   -2.015072  -3.831174   0.009316
H    2.663380  -4.082168  -0.109850
H    5.122972  -0.065479  -0.118127
H    2.208277   3.553328  -1.675563
H    2.291558   3.509562   1.675620

