%chk=mol_5063.chk
# wB97XD/Def2SVP opt pop=full gfinput

C 5 H 11 N 1 O 1

1 2
C    1.612995  -0.839794  -0.414833
N    4.351340  -0.564423  -0.736899
C    5.135803  -1.797300  -3.096392
C    5.023421   2.145652  -0.751903
C    7.877512   2.519723  -0.717510
C    9.305408   1.495246   1.523006
O    8.976332   3.647701  -2.435101
H    1.003596   0.002967   1.373510
H    1.088615  -2.840353  -0.335861
H    0.550798   0.053498  -1.953467
H    4.600311  -3.796989  -3.074490
H    7.192619  -1.753704  -3.310687
H    4.282082  -0.913853  -4.762072
H    4.284652   3.090439   0.941292
H    4.234120   3.119295  -2.402654
H    8.474307   2.218595   3.268848
H   11.276468   2.115076   1.427140
H    9.258241  -0.568845   1.508209

