%chk=mol_2797.chk
# wB97XD/Def2SVP opt pop=full gfinput

C 6 H 12 O 1

1 2
C    1.898778  -0.596057   0.468217
C    4.562441   0.205942  -0.347124
C    5.636959  -1.730460  -2.210224
C    4.733896   2.869927  -1.443448
C    2.810627   4.056392  -2.609239
C    7.259288   4.165542  -1.153205
O    7.721685   4.631567   1.448135
H    1.066694   0.792324   1.758655
H    1.967677  -2.409703   1.465350
H    0.629090  -0.830251  -1.149350
H    5.723413   0.146624   1.371752
H    4.554467  -1.759656  -3.975549
H    5.581325  -3.634945  -1.400306
H    7.608888  -1.314871  -2.680614
H    0.977706   3.177669  -2.875199
H    3.020406   5.953393  -3.366112
H    7.323974   5.980114  -2.146616
H    8.789702   2.993912  -1.900025
H    6.184696   5.374854   2.127643

