%chk=mol_7120.chk
# wB97XD/Def2SVP opt freq pop=full gfinput

C 6 H 9 N 1

1 2
C    0.95572966  -0.17568994  -0.00589000
C    2.45657897  -0.03576999  -0.00481000
C    3.17290902  -1.37195957  -0.00943000
C    3.13901877   1.13798952   0.00000000
C    2.50883913   2.50782895   0.00328000
C    4.54501867   1.13798952   0.00000000
N    5.69602823   1.13798952   0.00000000
H    0.41337985   0.76990974   0.00598000
H    0.63340974  -0.74031973   0.87599963
H    0.63298976  -0.72063971  -0.89983964
H    2.46288919  -2.20665908   0.00749000
H    3.81071854  -1.47675955   0.87495965
H    3.78019857  -1.48484945  -0.91402966
H    1.41863942   2.50448895  -0.01267000
H    2.83840895   3.07557893  -0.87469971
H    2.81491899   3.06026864   0.89922965

