%chk=mol_4876.chk
# wB97XD/Def2SVP opt pop=full gfinput

C 4 H 7 N 1 O 2

1 2
C    4.678112  -3.209322   0.374903
C    4.988801  -0.891516  -1.247465
O    4.284841  -0.857728  -3.466551
C    6.212286   1.384735  -0.066991
C    9.039977   1.302097  -0.273462
N   10.131446   3.278183  -1.516978
O   10.330037  -0.391721   0.638916
H    6.518875  -3.871973   1.030165
H    3.784384  -4.711427  -0.727488
H    3.465626  -2.762156   1.987501
H    5.692479   1.500613   1.931338
H    5.449120   3.079705  -0.975968
H    9.131554   4.427477  -2.672224
H   12.021965   3.177537  -1.799095

