%chk=mol_7164.chk
# wB97XD/Def2SVP opt freq pop=full gfinput

C 7 H 12

1 2
C    1.86892939   0.13664995  -0.71569973
C    1.82010925  -0.13198996   0.75943971
C    0.53323978   0.00642000  -0.02154999
C   -0.34364989   1.21734953   0.19532993
C   -1.75040936   0.72694969  -0.15213995
C   -1.71716940  -0.75372970   0.20742992
C   -0.33567986  -1.20155954  -0.26875988
H    2.19365931   1.11953950  -1.03967965
H    2.19590926  -0.66789979  -1.36487949
H    2.11492920  -1.11641955   1.10561955
H    2.10850906   0.67026973   1.43013942
H   -0.30364990   1.53022933   1.24505949
H   -0.05766998   2.06707931  -0.43288982
H   -2.52656889   1.27546954   0.38858986
H   -1.93335927   0.84431970  -1.22711957
H   -2.52468920  -1.32184958  -0.26304990
H   -1.79727936  -0.87517971   1.29459953
H   -0.36322987  -1.42793941  -1.34086955
H    0.00078000  -2.09380913   0.26769990

