%chk=mol_5087.chk
# wB97XD/Def2SVP opt pop=full gfinput

C 5 H 7 N 1 O 1

1 2
C    1.922985  -0.053366  -0.044522
N    4.673897   0.017556  -0.080918
C    5.594912   2.618556   0.000000
C    8.323677   2.618556   0.000000
C   10.572753   2.618556   0.000000
C   13.294658   2.600754   0.011490
O   14.497979   4.359693  -0.882634
H    1.284636  -2.019531  -0.104388
H    1.115127   0.927421  -1.677378
H    1.174994   0.789811   1.690398
H    5.305973  -0.811562  -1.700735
H    4.903990   3.562550   1.709616
H    4.889742   3.681999  -1.632138
H   14.183982   0.923207   0.863491

