%chk=mol_0852.chk
# wB97XD/Def2SVP opt freq pop=full gfinput

C 4 H 6 O 2

1 2
O    0.90830964   0.03168999   0.10784996
C    2.34141922   0.06286998  -0.04286999
C    3.09884882   1.08663964   0.84372967
C    4.08601856  -0.00360000   1.32447946
C    3.11023903  -1.03846967   0.73382974
O    2.97846889  -2.23992920   0.83688968
H    0.65819973  -0.88017970  -0.13237995
H    2.62525892   0.09307996  -1.10073960
H    2.48911905   1.51089942   1.65026939
H    3.56363869   1.91130924   0.29477987
H    5.05706835   0.00172000   0.82158971
H    4.21904850  -0.06854998   2.40607905

