%chk=mol_3998.chk
# wB97XD/Def2SVP opt freq pop=full gfinput

C 6 H 9 N 1

1 2
C   -1.67049932   0.96489966   0.40900987
C   -1.36255956  -0.41051984  -0.10281996
C   -0.33011988  -1.33036947   0.39833984
C    0.80843973  -0.68838978  -0.30808988
N    1.96849930  -0.17591994   0.28536990
C    0.94431967   0.85950965  -0.02961999
C   -0.52557981   0.76625973  -0.56766975
H   -2.56760907   1.45203948   0.04188998
H   -1.44992948   1.18209958   1.44818938
H   -2.03367925  -0.86517966  -0.82051969
H   -0.23919991  -1.29966950   1.48991942
H   -0.48639983  -2.36220908   0.07024997
H    0.93483961  -1.05844963  -1.32349956
H    1.99896932  -0.36048988   1.28875947
H    0.91672963   1.43656945   0.89208966
H   -0.68664974   1.13262963  -1.57979929

