%chk=mol_4812.chk
# wB97XD/Def2SVP opt freq pop=full gfinput

C 5 H 9 N 1 O 1

1 2
C    0.86960965   0.26431990   0.35551986
C    2.36082911   0.04647998   0.29500988
O    2.80686879  -1.10471964   0.41439983
C    3.27745891   1.28201962   0.05931998
C    2.70420885   2.70346904  -0.14300995
C    3.88830853   3.15128899   0.73232973
N    3.87638855   1.79850936   1.33165956
H    0.62543976   0.89941967   1.21020949
H    0.36089987  -0.69624978   0.47777981
H    0.52725983   0.72348976  -0.57487983
H    4.04504871   1.04769957  -0.69407970
H    1.72566938   2.89378881   0.31136987
H    2.70212889   3.07956886  -1.16918957
H    4.80297804   3.37967873   0.17265993
H    3.68118858   3.96623850   1.43051946
H    4.79088783   1.40427947   1.55139947

