%chk=mol_4248.chk
# wB97XD/Def2SVP opt freq pop=full gfinput

C 4 H 4 N 2 O 1

1 2
C    2.77448893  -1.10087955   0.42618984
C    2.20359898   0.07830998   0.15225995
C    2.96400881   1.27482951   0.09747997
C    2.56576920   2.56776905  -0.16491994
N    3.63569856   3.40749884  -0.11403996
N    4.71700859   2.69775915   0.17369993
O    4.32141876   1.37012947   0.30912989
H    2.17687917  -2.00667930   0.46400982
H    3.83868837  -1.20486951   0.61923981
H    1.13450956   0.12992994  -0.03365999
H    1.57356942   2.93070912  -0.38522986

