%chk=mol_0930.chk
# wB97XD/Def2SVP opt pop=full gfinput

C 4 H 5 N 1 O 1

1 2
C    0.747500   2.886254   0.955200
C    1.652414   0.658853  -0.547756
O    1.743253  -1.777949   0.692792
N   -0.813017  -2.600452   1.033680
C   -2.342845  -0.840134   0.305153
C   -1.068772   1.411059  -0.663691
H    1.303231   4.751527   0.322709
H    0.637235   2.684507   2.990718
H    2.839106   0.969732  -2.182577
H   -4.413323  -0.975949   0.372786
H   -1.764929   2.234450  -2.397817

