%chk=mol_4266.chk
# wB97XD/Def2SVP opt freq pop=full gfinput

C 4 H 6 N 2 O 1

1 2
C    0.96756965  -0.12959996  -0.01083000
C    2.47671914   0.04578998   0.02596999
C    2.87694883   1.47037947   0.00824000
C    3.16892886   2.32008910   1.03851962
O    3.48019862   3.52385855   0.49805981
N    3.37848878   3.41132855  -0.88902962
N    3.01322889   2.16268921  -1.16391957
H    0.70731974  -1.19298959  -0.00098000
H    0.53829980   0.31736991  -0.91513962
H    0.49173981   0.34515986   0.85500968
H    2.92131901  -0.46705982  -0.83415973
H    2.87538886  -0.43990985   0.92374969
H    3.20257878   2.25023913   2.11411929

