%chk=mol_6681.chk
# wB97XD/Def2SVP opt freq pop=full gfinput

C 4 H 3 N 1 O 1 S 1

1 2
O    2.64054894  -1.17547953   0.08837997
C    2.14349937  -0.05641998  -0.00556000
C    2.85267878   1.19479954   0.01593999
C    2.37733912   2.48719907  -0.08268997
C    3.45933867   3.41198874  -0.01099000
N    4.67905855   2.90182900   0.13118994
S    4.55032873   1.24581945   0.18374993
H    1.04937959   0.03834999  -0.11875995
H    1.33691955   2.76037884  -0.19756992
H    3.37828875   4.49078846  -0.06172998

