%chk=mol_6548.chk
# wB97XD/Def2SVP opt freq pop=full gfinput

C 4 H 10 O 2 S 1

1 2
C    0.98471963  -0.01115000  -0.04568999
C    2.50824904   0.03810998  -0.03413999
C    3.09268880  -0.76918972  -1.18767965
S    3.12783885   1.73035932  -0.01390000
C    2.57439899   2.46661901  -1.53617942
O    2.46678925   2.43456888   1.06958961
O    4.57698822   1.67546940  -0.06426997
H    0.56251979   0.55768979   0.78876972
H    0.63260972  -1.04428959   0.04448998
H    0.57350981   0.40057984  -0.97243965
H    2.86237907  -0.39743984   0.90849966
H    2.75984883  -0.38792986  -2.15796924
H    2.78375888  -1.81772935  -1.11862957
H    4.18698835  -0.74382973  -1.17631948
H    2.99670887   1.91867924  -2.37901902
H    2.93285894   3.49859858  -1.55625939
H    1.48449934   2.45966911  -1.56757951

