%chk=mol_4051.chk
# wB97XD/Def2SVP opt pop=full gfinput

C 7 H 14

1 2
C    3.956293  -0.592335  -2.851389
C    4.566523   0.144148  -0.139953
C    5.911819   2.693389   0.050437
C    4.325923   4.945413  -0.808500
C    5.731369   7.204694   0.286785
C    6.919818   6.264839   2.743675
C    6.562981   3.399901   2.774817
H    3.103195  -2.476297  -2.901429
H    5.667723  -0.633361  -4.011908
H    2.616930   0.729113  -3.708153
H    5.770864  -1.322865   0.692925
H    2.811100   0.172116   0.962135
H    7.663198   2.630934  -1.062650
H    2.412141   4.848395  -0.017499
H    4.166903   5.071666  -2.866450
H    7.222741   7.809747  -1.018373
H    4.478575   8.820561   0.593922
H    8.928540   6.763519   2.805336
H    6.018759   7.127764   4.395238
H    8.255874   2.420645   3.448769
H    5.007491   2.913088   4.055957

