%chk=mol_0999.chk
# wB97XD/Def2SVP opt pop=full gfinput

C 4 H 5 N 1 O 1

1 2
C    1.829217  -0.227391   0.028573
C    4.669532   0.153994   0.036075
C    5.314099   2.929189   0.009071
O    5.512085   4.165542  -1.943281
C    5.611466   4.118091   2.465601
N    5.833226   4.999610   4.463968
H    1.371714  -2.243653  -0.002646
H    0.965896   0.659703  -1.629927
H    0.960132   0.607849   1.710523
H    5.516867  -0.722121  -1.637996
H    5.523556  -0.751223   1.690643

