%chk=mol_6439.chk
# wB97XD/Def2SVP opt freq pop=full gfinput

C 5 H 7 N 1 S 1

1 2
C    0.81111974   0.14656994  -0.00799000
C    2.29088902   0.03361998  -0.00085000
C    3.24751878   1.02696967   0.00301000
N    4.55915785   0.59588981   0.00965000
C    4.59314823  -0.71985972   0.01046000
C    5.84919739  -1.51881945   0.01675999
S    3.05982900  -1.49765944   0.00314000
H    0.49847981   1.19597948  -0.00002000
H    0.37898985  -0.33768988   0.87424964
H    0.38938984  -0.32130989  -0.90390968
H    3.04491901   2.09118938   0.00135000
H    5.66183805  -2.59675884   0.02760999
H    6.44462776  -1.26926947   0.90033966
H    6.44265747  -1.28634953  -0.87276965

