%chk=mol_3645.chk
# wB97XD/Def2SVP opt freq pop=full gfinput

C 6 H 10 O 1

1 2
O    3.02934885  -0.96225965  -0.63641977
C    2.47282887   0.07787997   0.15706994
C    3.27539873   1.35561955  -0.04134998
C    3.25551891   1.86927927  -1.48877943
C    3.31662869   3.35184860  -1.30428958
C    3.05080891   3.70736885  -0.04309998
C    2.76859903   2.51977897   0.81825972
H    2.49998903  -1.76165926  -0.47246981
H    2.50346899  -0.23479992   1.20604956
H    1.42648947   0.21568993  -0.13565995
H    4.32385826   1.14918959   0.22162992
H    2.34148908   1.59402943  -2.02531910
H    4.12058830   1.49993944  -2.04807925
H    3.52099872   4.04395866  -2.10985923
H    3.01019883   4.72814846   0.31222987
H    3.31501889   2.57266903   1.76479924
H    1.69645941   2.45533919   1.03122962

