%chk=mol_0683.chk
# wB97XD/Def2SVP opt pop=full gfinput

C 5 H 10 O 1

1 2
C    1.194080   0.504009  -0.068767
C    3.924583  -0.034884   0.408578
C    5.801195   1.594249  -0.093598
C    8.557153   1.037819   0.367571
C    9.728613   2.863389   2.276232
O    8.825777   2.373288   4.763471
H    0.426757  -0.877589  -1.402233
H    0.895768   2.394453  -0.853344
H    0.130391   0.364188   1.698486
H    4.357803  -1.880769   1.207781
H    5.364460   3.432536  -0.909620
H    9.555967   1.205494  -1.439008
H    8.795900  -0.908920   1.036987
H    9.323947   4.837245   1.802704
H   11.782310   2.622808   2.306562
H    6.987376   2.392469   4.683497

