%chk=mol_1144.chk
# wB97XD/Def2SVP opt pop=full gfinput

C 4 H 5 N 1 S 1

1 2
C    1.700092   0.071640  -0.014797
C    4.501706   0.160891   0.000189
C    6.127059   2.202589   0.005442
C    8.681402   1.353630   0.020144
N    9.058496  -1.128034   0.025946
S    6.264744  -2.553228   0.013209
H    0.900984   1.980660  -0.000813
H    0.985832  -0.924662   1.652055
H    1.004049  -0.892820  -1.707859
H    5.538220   4.158229  -0.000813
H   10.340638   2.552207   0.026966

