%chk=mol_0277.chk
# wB97XD/Def2SVP opt pop=full gfinput

C 5 H 11 N 1

1 2
C    1.775133   0.024623   0.026097
C    4.636557   0.008277   0.025719
C    5.968322   1.897228   1.804632
N    7.860637  -0.086738   2.382926
C    5.954678  -2.029812   1.668061
C    7.108583  -4.264488   0.293701
H    1.040786  -1.590658  -1.035816
H    1.058643   1.748998  -0.861829
H    1.008150  -0.071356   1.946040
H    5.380674   0.104048  -1.911836
H    4.865818   2.476732   3.460731
H    6.737157   3.587853   0.898092
H    9.385514  -0.032069   1.202754
H    4.824509  -2.650908   3.295531
H    8.277965  -3.673363  -1.308068
H    5.620915  -5.502902  -0.435091
H    8.287791  -5.383301   1.572536

