%chk=mol_6395.chk
# wB97XD/Def2SVP opt freq pop=full gfinput

C 4 H 8 N 2 O 1

1 2
O    1.15155947   0.57005978   0.69967979
N    2.30101919   1.36992955   0.68705976
C    3.11193895   0.93018967  -0.22013991
N    4.34095812   1.44345951  -0.55546981
C    5.11000824   2.06700921   0.48313984
C    6.35118723   1.43188941  -0.14565994
C    5.38007784   0.51282978  -0.88793963
H    0.60631979   1.00431967   1.38166952
H    2.83810902   0.06254998  -0.84976965
H    4.88498831   1.70159936   1.49081945
H    5.06428814   3.15809894   0.45051983
H    6.91872740   2.10527921  -0.79727972
H    7.03390741   0.93678963   0.54964978
H    5.54010820   0.41917986  -1.96447921
H    5.25268793  -0.47434980  -0.43039984

