%chk=mol_3946.chk
# wB97XD/Def2SVP opt pop=full gfinput

C 5 H 9 N 1 O 1

1 2
C    1.954147  -0.034355  -0.036585
C    4.818310  -0.032787   0.181792
C    5.816502   2.260528   1.621555
C    8.275489   1.221765   2.568459
O   10.016625   2.515774   3.372632
C    8.303343  -1.631835   2.391448
N    5.702154  -2.238891   1.620478
H    1.292062  -1.702813  -1.068867
H    1.301946   1.644629  -1.057226
H    1.045283  -0.036887   1.824927
H    5.651226  -0.081768  -1.718271
H    4.635857   2.776461   3.238292
H    6.127305   3.876414   0.375111
H    9.663379  -2.209657   0.946261
H    8.741098  -2.476789   4.222083
H    5.665191  -3.834784   0.542465

