%chk=mol_3110.chk
# wB97XD/Def2SVP opt pop=full gfinput

C 5 H 10 O 2

1 2
C    1.820203  -0.382424  -0.306835
C    4.639410  -0.485546   0.353341
C    4.989765  -1.844033   2.882569
O    5.903863  -1.937876  -1.544133
C    5.742821   2.191345   0.376622
C    8.502105   2.200227   1.080621
O    9.401161   3.677313   2.628609
H    1.521362   0.535681  -2.139491
H    0.740168   0.652787   1.122724
H    1.031904  -2.290424  -0.474246
H    4.118885  -0.793024   4.437795
H    6.992629  -2.133463   3.319587
H    4.144320  -3.734647   2.820095
H    5.219707  -1.482471  -3.190462
H    4.720498   3.401375   1.710580
H    5.618042   3.039077  -1.509551
H    9.729198   0.893368   0.014759

