%chk=mol_5107.chk
# wB97XD/Def2SVP opt pop=full gfinput

C 5 H 11 N 1 O 1

1 2
C    2.543061  -1.347847   0.448810
N    5.186259  -0.577462   0.480142
C    5.470814   1.985686  -0.503461
C    8.186407   2.761608  -0.333593
C    9.558594   3.487376  -2.337534
O   12.014860   4.275657  -2.434950
C   13.355866   4.407673  -0.107280
H    2.381508  -3.287708   1.149067
H    1.756236  -1.296182  -1.464916
H    1.399985  -0.143922   1.683198
H    6.202629  -1.777023  -0.634702
H    4.350282   3.312407   0.627691
H    4.790323   2.089527  -2.458893
H    8.988615   2.740916   1.552429
H    8.785752   3.522657  -4.236520
H   15.261145   5.100069  -0.509848
H   13.524506   2.534841   0.756797
H   12.454486   5.742802   1.191945

