%chk=mol_3398.chk
# wB97XD/Def2SVP opt freq pop=full gfinput

C 6 H 10 O 1

1 2
C    2.64333892  -0.87524962   0.18792994
O    3.98406839  -0.40855986   0.13970995
C    4.04201841   1.02046967   0.09911996
C    5.47006798   1.52040935  -0.03149999
C    6.52905798   0.69212979  -0.10705996
C    5.70681763   2.95996881  -0.08080997
C    4.78005838   3.92563868  -0.01117000
H    2.66068912  -1.96669924   0.25078991
H    2.10583925  -0.58725977  -0.72086972
H    2.12920928  -0.48255983   1.07066953
H    3.60022855   1.41007948   1.02435958
H    3.45514870   1.37141955  -0.75854975
H    6.40251780  -0.38635984  -0.07546997
H    7.54746723   1.05357957  -0.20186993
H    6.74531746   3.27453876  -0.18472993
H    3.72013879   3.72748852   0.09389996
H    5.07922792   4.96868801  -0.05902998

