%chk=mol_0987.chk
# wB97XD/Def2SVP opt pop=full gfinput

C 4 H 11 N 1 O 1

1 2
C    2.433854  -0.546244   0.904895
C    4.775584   0.399356  -0.506484
C    4.901628  -0.635477  -3.223325
N    5.020700  -3.395781  -3.273988
C    4.788188   3.297780  -0.531882
O    7.073453   4.235538  -1.594041
H    2.360287   0.247762   2.815049
H    2.446647  -2.605913   1.095058
H    0.696024  -0.001814  -0.079368
H    6.466001  -0.246968   0.509036
H    6.570540   0.106203  -4.199349
H    3.238594  -0.022639  -4.295385
H    6.632126  -3.985678  -2.399593
H    5.161617  -3.984809  -5.103395
H    4.617961   4.062571   1.384489
H    3.212818   4.039630  -1.650959
H    8.442068   3.748385  -0.467329

