%chk=mol_6471.chk
# wB97XD/Def2SVP opt freq pop=full gfinput

C 4 H 5 N 1 O 1 S 1

1 2
C    0.91764963   0.09431997  -0.00429000
C    2.40146923  -0.01248999  -0.00618000
N    3.22201896   1.01617968  -0.00942000
C    4.52572823   0.55994982  -0.01086000
C    4.68896818  -0.81176966  -0.00875000
O    5.79897785  -1.54455936  -0.00938000
S    3.15023875  -1.55876946  -0.00489000
H    0.60961980   1.14515960   0.00642000
H    0.49265981  -0.38970986   0.88111967
H    0.49252981  -0.37185985  -0.89914966
H    5.32975817   1.28494954  -0.01354000
H    6.55342722  -0.93151963  -0.01187000

