%chk=mol_0141.chk
# wB97XD/Def2SVP opt freq pop=full gfinput

C 4 H 5 N 1

1 2
N   -1.13254964  -0.00011000   0.00054000
C   -0.33984986   1.11816955   0.00022000
C    0.97435963   0.70784974  -0.00014000
C    0.97438967  -0.70801973  -0.00004000
C   -0.33996987  -1.11845958   0.00038000
H   -2.14460921  -0.00014000   0.00084000
H   -0.77817971   2.10672927   0.00028000
H    1.84005940   1.35720944  -0.00044000
H    1.84014928  -1.35760939  -0.00024000
H   -0.77820975  -2.10713935   0.00059000

