%chk=mol_6658.chk
# wB97XD/Def2SVP opt freq pop=full gfinput

C 4 H 6 N 2 S 1

1 2
N    2.10790920  -0.51186979  -1.31572950
C    2.47562909  -0.09307996   0.03209999
C    2.99529910   1.30130959   0.01891999
C    2.29837918   2.49024916  -0.08422997
N    3.06043887   3.64351869  -0.04782998
C    4.32836819   3.31569862   0.06626997
S    4.67421818   1.63843942   0.14727993
H    1.82445931  -1.49005949  -1.29503953
H    2.93438911  -0.46808982  -1.91194928
H    3.21441865  -0.79045975   0.44194984
H    1.59131944  -0.14845996   0.67622972
H    1.22262955   2.57050920  -0.18937993
H    5.11395836   4.05849838   0.10851996

