%chk=mol_1474.chk
# wB97XD/Def2SVP opt freq pop=full gfinput

C 5 H 12 N 2

1 2
C    2.34462905  -0.45541984  -1.37381947
C    2.42541909   0.16172995   0.01661999
N    3.31293869   1.32679951   0.01157000
C    2.61232901   2.53644896  -0.52011979
C    3.23882866   3.34927869   0.64114976
N    4.58801842   3.80219865   0.25672990
C    3.32459879   1.97520924   1.35404956
H    1.72646928  -1.35886943  -1.34880948
H    3.33830881  -0.73981977  -1.73893940
H    1.89879930   0.23629992  -2.09596920
H    2.83657885  -0.59175974   0.69879979
H    1.41411948   0.39622986   0.37246987
H    1.51531935   2.50649905  -0.47797981
H    2.90493894   2.82470894  -1.53603947
H    2.61397910   4.11340857   1.10863960
H    5.08908796   3.06757879  -0.25133991
H    5.18080807   4.02300835   1.05474961
H    4.22561836   1.78462934   1.94568932
H    2.45193911   1.76646936   1.98775923

