%chk=mol_4858.chk
# wB97XD/Def2SVP opt freq pop=full gfinput

C 5 H 13 N 1 O 1

1 2
C    3.22442889   0.37999988  -2.95463896
C    4.00853825   0.39699984  -1.65666938
O    4.75628853   1.60946929  -1.60113943
C    5.38565779   1.83889925  -0.32827988
C    6.57414722   0.90112966  -0.13204995
C    5.86675787   3.30561876  -0.30643988
N    4.73776817   4.23741865  -0.41438985
H    2.65379882  -0.54748982  -3.05324888
H    3.89629841   0.47580984  -3.81387854
H    2.53143883   1.22658956  -2.99582887
H    4.68700838  -0.46133983  -1.63274944
H    3.31844878   0.33693990  -0.80785966
H    4.65479803   1.68999934   0.47700983
H    7.24909735   0.93995965  -0.99351966
H    6.24376774  -0.13714994  -0.03328999
H    7.13742733   1.15736961   0.77033973
H    6.53828764   3.48480868  -1.15443957
H    6.41423750   3.51929879   0.61733979
H    4.17263842   3.93206835  -1.21121955
H    5.09076786   5.16182804  -0.65620977

