%chk=mol_3699.chk
# wB97XD/Def2SVP opt pop=full gfinput

C 5 H 8 O 2

1 2
O    8.129734   2.257448   4.238467
C    6.217803   3.162306   3.289106
C    5.839972   3.589100   0.495316
C    8.238525   3.215407  -1.058190
C   10.152176   5.248034  -0.584152
C   11.490537   6.551869  -2.731807
O    9.408418   7.709535  -1.437666
H    4.580791   3.659209   4.482770
H    5.094399   5.503884   0.246023
H    4.386773   2.252856  -0.127802
H    7.722574   3.187911  -3.065552
H    9.097141   1.376628  -0.640617
H   11.104239   5.092226   1.220215
H   11.171324   5.909873  -4.647555
H   13.356849   7.317265  -2.387102

