%chk=mol_5911.chk
# wB97XD/Def2SVP opt freq pop=full gfinput

C 4 H 6 N 2 O 1

1 2
N    1.00883961   0.11496996   0.49859983
N    2.36375904   0.09052996   0.39220986
C    2.93178892   1.22056961   0.09167997
C    2.27923918   2.56399894  -0.15139994
O    1.37557948   2.91374874   0.88666964
C    4.36086845   1.08106959  -0.03316999
C    5.55245829   0.96702963  -0.13760994
H    0.59952980  -0.24018991  -0.37404987
H    0.73101974  -0.60792977   1.17402959
H    1.72737932   2.52267909  -1.09571958
H    3.03696895   3.34911871  -0.22675991
H    0.88991970   2.08158922   1.07263958
H    6.60844755   0.85617965  -0.22389992

