%chk=mol_4911.chk
# wB97XD/Def2SVP opt freq pop=full gfinput

C 4 H 11 N 1 O 2

1 2
C    3.51502872  -1.04060960   1.23042953
C    2.81335878  -0.31836990   0.08671997
O    1.40209949  -0.41379982   0.32078987
C    3.17518878   1.17147958  -0.04638998
O    2.79360890   1.85862935   1.15968966
C    4.66470814   1.43175948  -0.32235986
N    4.91371822   2.88118911  -0.36726984
H    4.59660816  -1.08792961   1.07776964
H    3.13873863  -2.06618929   1.31636953
H    3.31498885  -0.55591977   2.19200921
H    3.02428889  -0.83775967  -0.85418969
H    1.21407950   0.26126990   1.00486958
H    2.56637907   1.61039948  -0.84702969
H    3.31631875   2.68853879   1.13680959
H    4.97409821   0.96629965  -1.26336956
H    5.28084803   1.02723956   0.48641983
H    4.44268847   3.28026891  -1.18119955
H    5.91046762   3.04021883  -0.52270979

