%chk=mol_3011.chk
# wB97XD/Def2SVP opt freq pop=full gfinput

C 5 H 10 O 2

1 2
C    4.01738834  -0.90862966   0.75514972
C    3.71366858   0.42751983   1.42211938
C    3.35894871   1.52090943   0.40636984
C    2.84912896   2.79635906   1.07461953
O    3.77219868   3.25332856   2.05667925
C    4.57392836   1.88817930  -0.41342986
O    4.59135818   1.83725941  -1.64044940
H    4.20829868  -1.67320931   1.51480937
H    4.90334797  -0.84267968   0.11621995
H    3.17423868  -1.24285948   0.14250995
H    4.58048820   0.72144973   2.02570915
H    2.87240887   0.28596988   2.11178923
H    2.58637905   1.15459955  -0.28088990
H    1.89195919   2.60580897   1.57145941
H    2.70638895   3.59607863   0.33980986
H    3.38610864   4.04967833   2.46379900
H    5.45908785   2.22928905   0.15191995

