%chk=mol_3751.chk
# wB97XD/Def2SVP opt freq pop=full gfinput

C 5 H 10 O 2

1 2
O    2.51733923  -0.71373975   0.53322983
C    2.32935929   0.62410975   0.98792964
C    2.90121889   1.61282933  -0.02740999
C    4.40352821   1.54014945  -0.09957996
C    5.22317791   2.56705904   0.17732993
C    6.71326780   2.49530911   0.10310996
O    7.15699720   3.45444870  -0.84266973
H    2.17129922  -1.29979944   1.22825956
H    2.80850911   0.73513973   1.96693921
H    1.25298953   0.79047972   1.10315955
H    2.57919884   2.62509894   0.23956990
H    2.50361919   1.38927948  -1.02405965
H    4.81536818   0.57949984  -0.40459985
H    4.81209803   3.52586865   0.48224983
H    7.07338715   1.50806940  -0.20335993
H    7.15279722   2.73645878   1.07530951
H    6.68295765   3.26467872  -1.67050946

