%chk=mol_5649.chk
# wB97XD/Def2SVP opt freq pop=full gfinput

C 6 H 13 N 1

1 2
C    0.87538970   0.01844999  -0.22182992
C    2.36400914   0.03248999   0.02002999
C    2.74209905  -0.05057998   1.47681940
C    3.25307894  -0.66493976  -0.98808962
C    3.21528864   0.84312969  -0.94905967
C    4.41181850   1.62727940  -0.51809978
N    5.23959827   1.85139930  -1.69522941
H    0.63188976   0.07637997  -1.28825951
H    0.40190986   0.87015969   0.27775988
H    0.43323985  -0.90265965   0.17208993
H    3.81075859  -0.23297991   1.62384939
H    2.20464921  -0.87117970   1.96356916
H    2.48009920   0.88099962   1.98863924
H    2.79220891  -1.15542948  -1.83908927
H    4.14499855  -1.17063951  -0.63376975
H    2.68964887   1.35423958  -1.75180936
H    5.00210810   1.10736966   0.24217992
H    4.09397840   2.58909893  -0.10429996
H    5.54487801   0.94930965  -2.05910921
H    6.08511782   2.34654903  -1.41729951

