%chk=mol_3212.chk
# wB97XD/Def2SVP opt freq pop=full gfinput

C 6 H 14 O 1

1 2
C    8.42483711   0.09455997  -1.36769950
C    7.02233696   0.42618984  -0.89541972
O    7.11992741   1.08290958   0.36574987
C    5.86033821   1.50906932   0.89316964
C    5.10648823   0.32436988   1.49346936
C    6.13725758   2.55547905   1.98227930
C    6.80248737   3.80811858   1.42545938
H    8.39977646  -0.42546985  -2.32931900
H    8.93806648  -0.53820980  -0.63656974
H    9.02109718   1.00670958  -1.47449946
H    6.44442749  -0.49778980  -0.79962969
H    6.53284788   1.08449960  -1.62143946
H    5.25900793   1.97027922   0.10049997
H    5.73651791  -0.21997991   2.20601916
H    4.81399822  -0.39116985   0.71868974
H    4.19513845   0.65056974   2.00532937
H    6.79658747   2.12980914   2.74922919
H    5.19973803   2.84269881   2.47344923
H    7.77318716   3.57888865   0.97560960
H    6.96660709   4.53461838   2.22733927
H    6.17224789   4.27916813   0.66508973

