%chk=mol_3418.chk
# wB97XD/Def2SVP opt pop=full gfinput

C 5 H 10 O 2

1 2
C    6.845458  -2.133614   1.605927
O    5.028996  -0.384956   0.668850
C    5.861099   1.987047   0.071091
C    8.180700   2.978549   0.329285
C    8.994322   5.598503  -0.402115
C    7.042159   7.254092  -1.723733
O    9.796000   6.839334   1.847906
H    5.877748  -3.924961   1.965542
H    7.656717  -1.476292   3.391926
H    8.326454  -2.478811   0.203278
H    4.274617   3.038661  -0.691753
H    9.699378   1.845752   1.121175
H   10.652046   5.437385  -1.632723
H    5.403823   7.612365  -0.508790
H    6.392679   6.399104  -3.491817
H    7.859050   9.106042  -2.159636
H    8.348186   6.885539   2.980098

