%chk=mol_6201.chk
# wB97XD/Def2SVP opt freq pop=full gfinput

C 5 H 3 N 1 O 1

1 2
O    1.27576959  -0.32324988   0.77387971
C    2.18182921  -0.03077999  -0.00154000
C    2.96270895   1.25336945   0.08132997
C    4.40705824   1.00082958   0.02130999
C    5.59242773   0.80711973  -0.02321999
C    7.10904741   0.56489980  -0.08071996
N    8.25320721   0.38127986  -0.13028996
H    2.41938901  -0.68527973  -0.85824966
H    2.70198894   1.76641941   1.01251960
H    2.65140915   1.88607931  -0.75590968

