%chk=mol_6131.chk
# wB97XD/Def2SVP opt freq pop=full gfinput

C 4 H 4 N 2 O 1

1 2
O    0.93357968  -0.03290999   0.00836000
C    2.30213928  -0.00399000  -0.00214000
C    3.02244878   1.11565959  -0.00431000
C    2.48596907   2.47376919   0.00393000
N    3.46480870   3.32304883  -0.00115000
C    4.58796835   2.51334906  -0.01233000
N    4.38703823   1.22702956  -0.01461000
H    0.65209973  -0.96653962   0.00734000
H    2.76288915  -0.98311961  -0.00867000
H    1.40843940   2.68189907   0.01292999
H    5.59612799   2.95734882  -0.01887999

