%chk=mol_5842.chk
# wB97XD/Def2SVP opt freq pop=full gfinput

C 4 H 7 N 1 O 2

1 2
N    0.95327961   0.31848988  -0.02369999
C    2.18610930   0.16755994  -0.57773978
O    2.43461919  -0.66681975  -1.43498945
C    3.21835876   1.08168960  -0.04790998
C    4.18975830   1.75975931  -0.98540968
C    3.11502886   2.56095886  -0.31909987
O    3.54428864   3.41263866   0.75235975
H    0.77204973   0.98306960   0.71576971
H    0.21663992  -0.30401990  -0.32391989
H    3.62377882   0.77456975   0.91039968
H    4.09525824   1.55740941  -2.04680920
H    5.21134806   1.87553930  -0.64614975
H    2.29634929   2.90989900  -0.94267964
H    3.95448852   4.22628832   0.40943983

