%chk=mol_4695.chk
# wB97XD/Def2SVP opt freq pop=full gfinput

C 5 H 13 N 1 O 1

1 2
C    1.80319929   0.75587976  -1.09881961
C    3.29238868   1.00852966  -0.92062968
N    3.49877858   2.29734921  -0.25670990
C    4.93709850   2.56926894  -0.08899996
C    5.19514799   3.96234846   0.52041978
C    4.78761816   5.10363817  -0.40429986
O    4.48784828   4.08862829   1.75782943
H    1.64054930  -0.21399991  -1.57976949
H    1.34519958   1.52569938  -1.72900939
H    1.28238952   0.74563968  -0.13551995
H    3.77305865   1.00423968  -1.90547931
H    3.72668839   0.19715993  -0.32487988
H    3.07616901   2.25029922   0.67157978
H    5.45588779   2.49942899  -1.05247962
H    5.35934782   1.81135929   0.58226979
H    6.26302767   4.05310869   0.74820971
H    3.71048856   5.09617805  -0.60311979
H    5.32128763   5.05181837  -1.35784948
H    5.00865793   6.06759787   0.06699997
H    3.54506874   4.14921856   1.52207947

