%chk=mol_3193.chk
# wB97XD/Def2SVP opt pop=full gfinput

C 6 H 14 O 1

1 2
C    1.811907  -0.228071  -0.012075
C    4.684726   0.041990  -0.008107
O    5.656347  -1.361283  -2.102037
C    5.703590   2.805487  -0.046544
C    4.854461   4.261710  -2.419605
C    4.802928   4.256570   2.310266
C    8.620477   2.748342  -0.022129
H    0.944806   0.670116   1.633045
H    1.293310  -2.233052   0.009260
H    0.973644   0.561797  -1.729723
H    5.402141  -0.901059   1.693081
H    4.826134  -0.763695  -3.627329
H    5.491015   3.334573  -4.156169
H    5.635598   6.180520  -2.427108
H    2.795831   4.443427  -2.508422
H    5.304839   3.245359   4.045772
H    2.753029   4.535532   2.302461
H    5.671522   6.134505   2.406963
H    9.330353   1.724659   1.631741
H    9.406187   4.663447   0.042821
H    9.379315   1.826666  -1.713037

