%chk=mol_6197.chk
# wB97XD/Def2SVP opt freq pop=full gfinput

C 5 H 5 N 1 O 1

1 2
O    1.43602943  -1.03196967   0.11422996
C    2.56086898  -0.56859982  -0.02117999
C    2.79813886   0.88815969   0.04693998
C    4.03697824   1.38846946  -0.07202997
C    4.35058832   2.85940909  -0.00851000
C    5.01728821   3.30096889  -1.24276960
N    5.55165768   3.64762855  -2.21357918
H    3.44502878  -1.20405960  -0.19472994
H    1.91708934   1.50271952   0.19635993
H    4.88689804   0.72225976  -0.21541992
H    5.00612831   3.04154873   0.85052973
H    3.44082880   3.44958854   0.15078995

