%chk=mol_6417.chk
# wB97XD/Def2SVP opt pop=full gfinput

C 4 H 4 N 2 S 1

1 2
C    4.066898   0.675804   1.087103
N    3.483294   0.516783  -1.575654
C    4.894221   2.580704  -2.044873
N    6.026979   3.941477  -3.772536
S    7.801262   6.058821  -2.105760
C    7.180733   4.772258   0.887831
C    5.549427   2.872629   0.427664
H    5.126581  -0.902703   1.901178
H    2.449501   1.041768   2.323985
H    4.046225  -1.077654  -2.477828
H    8.071380   5.455847   2.591098

