%chk=mol_3360.chk
# wB97XD/Def2SVP opt freq pop=full gfinput

C 6 H 10 O 1

1 2
C    1.27228951  -0.08971997  -0.78435969
O    2.51247907  -0.19919991  -0.09139997
C    3.18406868   0.99501961  -0.04752998
C    4.52408791   1.08745956   0.01962999
C    5.40477800  -0.13448994   0.02927999
C    5.14417791   2.40581918   0.08275997
C    6.45758724   2.66219902   0.14231995
H    0.81743968  -1.08351970  -0.82480973
H    1.42965949   0.25916991  -1.81040931
H    0.58650976   0.57975978  -0.25374991
H    2.53330898   1.86125934  -0.04269999
H    4.83383846  -1.06738961  -0.01810999
H    6.00310755  -0.17187993   0.94622964
H    6.08051777  -0.12922995  -0.83283973
H    4.46844864   3.26079869   0.08147997
H    7.21113729   1.88271928   0.14917995
H    6.81284761   3.68726850   0.18696992

