%chk=mol_0615.chk
# wB97XD/Def2SVP opt pop=full gfinput

C 6 H 8

1 2
C    1.889726   0.000000   0.000000
C    4.618491   0.000000   0.000000
C    6.867567   0.000000   0.000000
C    9.574826  -0.033996   0.077101
C   10.984241  -1.400759  -1.981057
C   11.030143   1.434283  -1.878350
H    1.145098   1.929146   0.021978
H    1.145023  -0.983678   1.659633
H    1.145193  -0.945468  -1.681762
H   10.393172  -0.116407   1.958682
H    9.915393  -2.288855  -3.487773
H   12.687055  -2.413785  -1.457735
H   12.763701   2.346662  -1.284976
H    9.991342   2.462370  -3.311783

