%chk=mol_1762.chk
# wB97XD/Def2SVP opt freq pop=full gfinput

C 5 H 10 N 2

1 2
C    0.96541965   0.05046998  -0.09557997
N    2.43428922   0.04740998  -0.14103994
C    3.11926889  -1.16898954  -0.17422993
C    2.65614915  -2.41885900  -0.29012990
C    3.10297894   1.26736951   0.01274000
C    2.45029902   2.39664912   0.78716969
N    4.26724815   1.53205943  -0.49277979
H    0.55183977   1.01905966  -0.39639986
H    0.61591977  -0.18094993   0.91614968
H    0.54245979  -0.68081975  -0.79264969
H    4.19406843  -1.04708970  -0.05068998
H    1.60387945  -2.65097904  -0.39414984
H    3.34594893  -3.25751877  -0.27858990
H    1.84284925   2.00241923   1.60658932
H    1.82052934   2.98240900   0.11109996
H    3.21572876   3.05421877   1.21035945
H    4.57780838   0.73014969  -1.04529965

