%chk=mol_4996.chk
# wB97XD/Def2SVP opt pop=full gfinput

C 4 H 8 N 2 O 1

1 2
C    1.816140  -0.113856  -0.160853
N    4.541503   0.068087  -0.327622
C    5.722922   2.429602   0.447941
C    8.519735   2.272811  -0.212783
O    9.579003   0.113969   1.027973
N    8.433337  -2.200907   0.284971
C    6.046651  -2.047669  -0.242150
H    0.917745   1.703267  -0.578086
H    1.245764  -0.702449   1.739172
H    1.093093  -1.494188  -1.522968
H    4.853119   4.040235  -0.517294
H    5.483305   2.668993   2.491472
H    9.517511   3.954139   0.459922
H    8.833147   2.105419  -2.254254
H    5.024423  -3.798746  -0.730587

