%chk=mol_3539.chk
# wB97XD/Def2SVP opt freq pop=full gfinput

C 6 H 10 O 1

1 2
O    0.83989966  -0.19926992   0.38275987
C    2.22202921   0.09909996   0.11296996
C    2.88266897   1.13908958   1.04649961
C    4.16908836   0.29341987   0.97000962
C    3.26838875  -0.92766964   0.65381974
C    3.79240870  -1.89036930  -0.34619987
C    4.88214827  -2.61796904  -0.07295997
H    0.64717978  -0.98852962  -0.15169995
H    2.35432911   0.35312986  -0.94711965
H    2.43911910   1.18833959   2.04775929
H    2.96613884   2.15218902   0.64440978
H    4.84122801   0.59736979   0.15864994
H    4.74281836   0.23109992   1.89892924
H    2.91309881  -1.44266939   1.55804944
H    3.27635860  -2.01104927  -1.29515946
H    5.41532803  -2.52414918   0.86768967
H    5.26947832  -3.33104873  -0.79662973

