%chk=mol_5693.chk
# wB97XD/Def2SVP opt pop=full gfinput

C 6 H 13 N 1

1 2
C    1.983929   0.202295  -0.177729
C    4.799678   0.112004  -0.079028
C    6.365202  -1.304119  -2.007229
C    5.215644  -2.714516  -4.157927
C    6.501414   1.567830  -1.890822
C    5.391955   3.135112  -4.000494
N    8.826382   2.665459  -0.804645
H    1.289965   1.692042   1.076577
H    1.204511  -1.595193   0.482164
H    1.223503   0.564499  -2.060576
H    5.409851  -0.060263   1.874363
H    7.991104  -2.341635  -1.301209
H    3.470274  -1.874230  -4.871601
H    4.775773  -4.648878  -3.567085
H    6.559277  -2.822136  -5.727344
H    3.720587   2.299022  -4.875701
H    6.797250   3.404379  -5.497780
H    4.850152   5.002502  -3.287708
H    9.537259   1.551333   0.595472
H    8.437174   4.362697   0.019974

