%chk=mol_5324.chk
# wB97XD/Def2SVP opt freq pop=full gfinput

C 5 H 11 N 1 O 1

1 2
C    3.96215844  -1.03434968   0.76619971
O    2.92098904  -0.33351988   0.09724997
C    3.13379884   0.98996961  -0.17859994
C    4.22101831   1.73953927   0.05923998
C    4.40089846   3.19754887  -0.27090991
C    3.16512871   3.92748857  -0.79940975
N    4.89068794   3.87417865   0.93055964
H    3.63388872  -2.06786919   0.91116965
H    4.15436840  -0.59955978   1.75294936
H    4.87606812  -1.05310965   0.16196994
H    2.23949933   1.37906945  -0.65522981
H    5.09426785   1.28686953   0.52219981
H    5.18717813   3.26290870  -1.03237963
H    2.33852911   3.90418863  -0.07961997
H    2.81406879   3.48025870  -1.73631930
H    3.39366865   4.97915792  -1.00954962
H    4.14200830   3.90186834   1.62293947
H    5.09548807   4.84638834   0.70685971

