%chk=mol_0090.chk
# wB97XD/Def2SVP opt pop=full gfinput

C 3 H 7 N 1 O 1

1 2
C    1.905468  -0.213029  -0.163915
C    4.746954   0.027496   0.138970
C    5.599617   2.748210   0.009090
N    5.344543   3.878550  -2.289913
O    6.476980   3.897277   1.817463
H    1.324207  -2.186149   0.049794
H    1.286110   0.437831  -2.027771
H    0.912095   0.915194   1.258066
H    5.726267  -1.052332  -1.330518
H    5.329538  -0.749673   1.967488
H    4.746520   2.955154  -3.848484
H    5.937180   5.688397  -2.456776

