%chk=mol_5951.chk
# wB97XD/Def2SVP opt freq pop=full gfinput

C 4 H 8 N 2 O 1

1 2
O    0.49143982   0.10187996  -0.31863987
C    1.87938941  -0.08905996  -0.00159000
C    2.63362908  -0.99776959  -0.92437971
C    2.86445904   0.48657981  -0.98707962
N    4.14293861   1.03387964  -0.51042980
N    3.91427851   2.32674909  -0.19073993
C    4.94906807   2.91337895   0.31420988
H    0.22250992   1.00947964  -0.09178997
H    2.16042924  -0.09157997   1.04666960
H    2.08576918  -1.46061945  -1.73572934
H    3.40018868  -1.62613940  -0.48771980
H    2.44928908   0.99694967  -1.85382938
H    4.84983826   0.94476962  -1.24528944
H    4.88184834   3.97161865   0.61082977
H    5.91872787   2.41201925   0.47726983

