%chk=mol_2352.chk
# wB97XD/Def2SVP opt freq pop=full gfinput

C 6 H 10 O 1

1 2
C    1.01391959   0.03753999   0.00880000
C    2.49897909  -0.00302000  -0.02799999
C    3.27939868  -1.08968961  -0.10587996
C    4.73396826  -0.73234975  -0.07261997
C    4.71363831   0.77815974  -0.34005988
O    4.92308855   1.02560961  -1.73539925
C    3.31289887   1.25634956   0.06710997
H    0.58180976  -0.96612966  -0.06057998
H    0.62845975   0.62838978  -0.82807964
H    0.66763973   0.49060982   0.94297963
H    2.92190886  -2.10949922  -0.14930995
H    5.14117813  -0.96090961   0.91767967
H    5.29254770  -1.27971959  -0.83752966
H    5.50398779   1.30459952   0.20313993
H    4.21443844   0.55862981  -2.21420908
H    2.93533874   2.03229928  -0.60596979
H    3.30075884   1.62171936   1.09953952

