%chk=mol_0193.chk
# wB97XD/Def2SVP opt pop=full gfinput

C 4 H 6 O 1

1 2
C   -0.683495   2.204743   0.262880
O   -2.268786  -0.002192   0.310501
C   -0.687596  -2.210999   0.238465
C    1.928636  -1.261978  -0.050153
C    1.931168   1.252548  -0.036132
H   -0.925059   3.239690   2.035802
H   -1.256139   3.402301  -1.321032
H   -1.262526  -3.389621  -1.358392
H   -0.931389  -3.265333   1.999311
H    3.573831  -2.454206  -0.231189
H    3.578896   2.445457  -0.204072

