%chk=mol_6202.chk
# wB97XD/Def2SVP opt freq pop=full gfinput

C 5 H 7 N 1 O 1

1 2
O    3.26063871   3.75925875  -1.56079948
C    2.52650905   3.21654892  -0.74201971
C    2.91208887   2.00446916   0.07084998
C    4.34149837   1.51846945  -0.18163994
C    5.44141817   2.47568917   0.29167989
C    5.39682817   2.69295907   1.74343932
N    5.33472776   2.86037898   2.88998890
H    1.50628948   3.59702849  -0.56093979
H    2.20988917   1.20795953  -0.20045991
H    2.75047898   2.23847914   1.12758958
H    4.47878838   1.33503950  -1.25468957
H    4.46863842   0.55077976   0.32076988
H    5.37680769   3.43635869  -0.22809993
H    6.41470766   2.04556918   0.02665999

