%chk=mol_3776.chk
# wB97XD/Def2SVP opt freq pop=full gfinput

C 7 H 14

1 2
C    3.40718865   2.44742894  -2.14873934
C    3.47480869   2.66699910  -0.64444977
C    4.25012827   1.57162941   0.09599996
C    5.70291758   1.42999947  -0.30941987
C    6.16540766   0.27726990  -0.82436973
C    6.62047720   2.61898899  -0.12125996
C    6.77855730   3.03047872   1.33599949
H    2.78122902   3.21655869  -2.61237907
H    2.97281885   1.47057939  -2.38349915
H    4.39874840   2.50465894  -2.60777903
H    2.45190907   2.69345903  -0.24916992
H    3.91076851   3.65117860  -0.43844983
H    3.72298861   0.61920977  -0.04853998
H    4.20170832   1.77079940   1.17338955
H    5.51871777  -0.58345979  -0.96640962
H    7.20396709   0.16065994  -1.11939967
H    6.24811792   3.46850872  -0.70496976
H    7.61746693   2.39532924  -0.52238983
H    5.83535767   3.39505887   1.75462937
H    7.51135731   3.83955860   1.41950941
H    7.12718725   2.19304919   1.94911933

