%chk=mol_3874.chk
# wB97XD/Def2SVP opt freq pop=full gfinput

C 4 H 5 N 1 O 2

1 2
C   -1.34136951   0.67112976   0.24570990
O   -1.48505938  -0.74057972   0.41692984
C   -0.34303987  -1.48630953   0.43718985
C    0.93989962  -1.11711955   0.33237988
C    1.42736948   0.27524990   0.20555992
N    0.83922970   1.31487954  -0.29099989
O   -0.43749982   1.01818967  -0.80637968
H   -2.32504916   1.06420958  -0.02917999
H   -1.06156957   1.13872957   1.19918954
H   -0.61550975  -2.53113914   0.54773980
H    1.72016931  -1.86945939   0.37614986
H    2.45029902   0.42308986   0.59197980

