%chk=mol_0777.chk
# wB97XD/Def2SVP opt pop=full gfinput

C 4 H 8 O 2

1 2
C    1.777835   0.268454   0.195889
C    4.586706  -0.036302  -0.320479
O    4.896205  -1.082530  -2.782565
C    5.934949   2.446118  -0.219000
C    7.403928   3.258190   2.078661
O    8.637844   2.225436  -0.106429
H    1.444167   1.070133   2.072179
H    0.814925  -1.558835   0.069674
H    0.894464   1.508531  -1.206892
H    5.389461  -1.380369   1.036515
H    6.710758  -1.089862  -3.102552
H    5.155683   3.861032  -1.471038
H    7.338336   2.100846   3.764278
H    7.627369   5.262490   2.426087

