%chk=mol_2813.chk
# wB97XD/Def2SVP opt freq pop=full gfinput

C 6 H 8 O 1

1 2
C    0.99999964   0.00000000   0.00000000
C    2.44399905   0.00000000   0.00000000
C    3.63415861   0.00000000   0.00000000
C    5.04015779   0.00000000   0.00000000
C    5.74000788   1.12686956  -0.19443993
C    7.22896719   1.19557953  -0.20189993
O    7.65086699   1.70518935  -1.45615947
H    0.60599977   1.02087963   0.01156000
H    0.60591978  -0.52042985   0.87830967
H    0.60592973  -0.50037980  -0.88987970
H    5.54577780  -0.94727963   0.16348994
H    5.21937847   2.06978917  -0.35006988
H    7.69695663   0.21805991  -0.04718998
H    7.58043718   1.87294936   0.58218980
H    7.22810698   1.15966952  -2.14130902

