%chk=mol_6724.chk
# wB97XD/Def2SVP opt pop=full gfinput

C 4 H 8 N 2 S 1

1 2
S    2.734226   0.116615   2.270846
C    5.236318   0.029801   0.385788
N    6.261777  -2.198129  -0.369423
C    8.238450  -2.399820  -2.246431
C    9.979511  -0.123267  -2.157160
C    8.356709   2.236000  -2.304238
N    6.370985   2.181613  -0.426851
H    5.323925  -3.775106   0.176859
H    9.282599  -4.147042  -1.885663
H    7.320497  -2.561543  -4.095603
H   11.040422  -0.128086  -0.377019
H   11.346501  -0.177426  -3.707832
H    9.489090   3.936337  -1.983721
H    7.449981   2.400538  -4.158739
H    5.514051   3.817662   0.077649

