%chk=mol_1963.chk
# wB97XD/Def2SVP opt freq pop=full gfinput

C 5 H 12 N 2

1 2
N    1.40288949   0.18136995   1.11850953
C    1.94250929   0.47494984  -0.20015992
C    3.12815881   1.36489952  -0.01874999
C    3.44157863   2.44905901  -1.02164960
C    2.93978882   2.81987906   0.35246986
C    3.84156871   3.43462873   1.37041950
N    3.63635874   4.87401819   1.33533955
H    0.55912977  -0.37905985   1.01435959
H    1.10476959   1.05450964   1.55277944
H    1.17288959   0.94599962  -0.82123971
H    2.24873900  -0.45534983  -0.68928969
H    3.96545839   0.82876968   0.41669986
H    2.76786900   2.59724903  -1.85826933
H    4.48340845   2.62842894  -1.26148951
H    1.91967928   3.17958879   0.44360983
H    4.89393806   3.20286870   1.17326963
H    3.59149861   3.05211902   2.36475897
H    3.91347837   5.22629833   0.42063984
H    4.25915861   5.31324816   2.01101923

