%chk=mol_1267.chk
# wB97XD/Def2SVP opt pop=full gfinput

C 6 H 13 N 1

1 2
C    2.574809  -0.259478   0.297159
C    5.082797   0.296555  -1.059796
C    4.997551  -1.095814  -3.557258
C    6.504343  -3.033917  -4.181322
N    5.513257   3.033199  -1.469224
C    5.394015   4.477233   0.893576
C    7.979047   3.497430  -2.661736
H    2.611790   0.383992   2.263495
H    2.189966  -2.296206   0.349165
H    0.974834   0.655338  -0.652409
H    6.612416  -0.475587   0.115009
H    3.601346  -0.439588  -4.918900
H    7.932050  -3.746949  -2.891168
H    6.341316  -3.937603  -6.014110
H    3.485146   4.465064   1.689566
H    5.837024   6.473408   0.556827
H    6.717051   3.755528   2.315104
H    8.079902   2.665421  -4.554543
H    9.544724   2.751781  -1.528411
H    8.286675   5.528470  -2.931116

