%chk=mol_6676.chk
# wB97XD/Def2SVP opt freq pop=full gfinput

C 5 H 4 O 1 S 1

1 2
O    2.54482913  -1.20473957   0.04804998
C    2.10103917  -0.06025998  -0.00977000
C    2.86978889   1.16551960   0.00241000
C    2.39943910   2.46280909  -0.06118998
C    3.45469856   3.42151880  -0.02459999
C    4.69128847   2.82251906   0.06549998
S    4.57579851   1.11660957   0.10539996
H    1.00914967   0.08751997  -0.07888997
H    1.34914947   2.72021914  -0.13082995
H    3.31480861   4.49526834  -0.06238998
H    5.65992785   3.30180883   0.11006995

