%chk=mol_6791.chk
# wB97XD/Def2SVP opt freq pop=full gfinput

C 6 H 11 N 1

1 2
C    0.93423963   0.01830999  -0.09078997
C    2.44115901  -0.04711998   0.16753992
C    3.16184878   1.22764945  -0.33619988
N    3.39445877   1.20486951  -1.78455937
C    4.25113821   0.07524997  -2.15529919
C    3.84731841  -1.22077954  -1.51431942
C    3.01304889  -1.29169953  -0.46528983
H    0.49552980   0.89193964   0.40380985
H    0.43147984  -0.87141973   0.30611989
H    0.70499974   0.08437997  -1.15985954
H    2.59851885  -0.11195996   1.25131953
H    2.56731892   2.11422920  -0.08605997
H    4.12133837   1.34111941   0.18508993
H    3.85067844   2.06926918  -2.06937933
H    5.29358768   0.29028991  -1.89058936
H    4.21113873  -0.03961999  -3.24360895
H    4.25929832  -2.13118911  -1.93846929
H    2.73523903  -2.25566912  -0.04970998

