%chk=mol_6172.chk
# wB97XD/Def2SVP opt pop=full gfinput

C 4 H 3 N 1 O 2

1 2
O    5.061594  -2.035065   0.104237
C    4.116353   0.087192   0.015685
C    5.455639   2.457116  -0.005764
N    4.400171   4.718835  -0.101667
C    6.425371   6.340881  -0.080502
C    8.637201   4.992978   0.027836
O    8.043544   2.489487   0.077044
H    2.043247   0.289204  -0.056862
H    6.184525   8.369143  -0.143714
H   10.622849   5.462442   0.079217

