%chk=mol_6451.chk
# wB97XD/Def2SVP opt freq pop=full gfinput

C 3 H 6 O 3 S 1

1 2
C    0.90609968   0.04468998  -0.00607000
C    2.41863894   0.00845000  -0.00599000
C    3.12826872   0.97210968   0.94395965
O    4.14942837   0.02052999   1.32107961
S    3.21778870  -1.26108956   0.91198963
O    2.45878887  -1.68641937   2.06505919
O    3.97515845  -2.15381908   0.06476998
H    0.50100982  -0.80058968  -0.57145977
H    0.54448980   0.96534961  -0.47526982
H    0.49493983   0.00167000   1.00766957
H    2.81396890   0.05856998  -1.02815962
H    2.54932904   1.29465950   1.81771934
H    3.55647874   1.85814929   0.46551982

