%chk=mol_0336.chk
# wB97XD/Def2SVP opt pop=full gfinput

C 5 H 5 N 1

1 2
C    1.889726   0.000000   0.000000
C    4.138803   0.000000   0.000000
C    6.867567   0.000000   0.000000
C    7.918633   2.685452  -0.002683
C   10.691636   2.649188  -0.002646
N   12.885003   2.611280  -0.002589
H   -0.125232  -0.009657   0.000019
H    7.569298  -1.030146  -1.657328
H    7.569279  -1.026821   1.659369
H    7.239805   3.720965   1.659236
H    7.239805   3.717639  -1.666663

