%chk=mol_6285.chk
# wB97XD/Def2SVP opt freq pop=full gfinput

C 4 H 4 N 2 O 1

1 2
O    2.81060886  -1.05540967   0.02082999
C    2.19227934   0.00120000   0.00021000
N    2.89319897   1.20133960   0.00382000
C    2.35032916   2.46628904  -0.01705999
C    3.42169881   3.32800889  -0.00352000
N    4.60128832   2.63493896   0.02491999
C    4.25609875   1.36571944   0.02872999
H    1.09217954   0.05798998  -0.02144999
H    1.28380942   2.63895917  -0.03903999
H    3.40657878   4.41089821  -0.01274000
H    4.93586779   0.52281982   0.04876998

