%chk=mol_2025.chk
# wB97XD/Def2SVP opt freq pop=full gfinput

C 6 H 9 N 1

1 2
N    0.92475963   0.08831996  -0.13978994
C    2.08253932   0.02665999  -0.19521993
C    3.54588866  -0.05224998  -0.26562992
C    4.18900871   1.22221959   0.27785990
C    5.68654776   1.15954959   0.19352992
C    6.52786779   1.92063928   1.18435955
C    6.48070765   0.41833985   1.23702955
H    3.85808849  -0.21502993  -1.30388951
H    3.89544868  -0.91964966   0.30663988
H    3.86773872   1.38742948   1.31458950
H    3.84311867   2.09081912  -0.29676989
H    6.03976774   1.12602949  -0.83220971
H    6.03532791   2.47093892   1.97845924
H    7.43900728   2.38734913   0.82623965
H    7.36091709  -0.12697995   0.91421962
H    5.95831776  -0.04041999   2.06909919

