%chk=mol_2668.chk
# wB97XD/Def2SVP opt pop=full gfinput

C 5 H 10 O 2

1 2
C    4.527878  -0.928252  -2.781639
C    4.531885   0.182548  -0.132356
C    6.649134   2.111599   0.160268
O    6.141459   4.392517  -1.280800
C    5.793031   5.834397   1.015633
C    6.687174   3.619922   2.657975
O    9.106174   3.897258   3.900943
H    3.032878  -2.345339  -2.965245
H    6.337272  -1.837267  -3.207357
H    4.205207   0.537740  -4.205094
H    4.793782  -1.346052   1.240303
H    2.688797   1.045113   0.256152
H    8.503616   1.333750  -0.344743
H    6.998412   7.512871   1.046738
H    3.817795   6.388144   1.272372
H    5.265779   3.012526   4.034263
H   10.258718   4.460793   2.580308

