%chk=mol_1676.chk
# wB97XD/Def2SVP opt freq pop=full gfinput

C 7 H 8

1 2
C    1.48364937  -0.40650985  -1.11241949
C    2.08230925   0.12237995  -0.03485999
C    3.23365879   1.09472954   0.00736000
C    2.80705881   2.43449903   0.55301976
C    3.08432889   3.40364861  -0.33414987
C    3.69952846   2.82077885  -1.49956954
C    3.79940867   1.49401951  -1.33259952
H    0.65711975  -1.10160959  -0.99943966
H    1.78461933  -0.15712994  -2.12455940
H    1.70811939  -0.17877993   0.94287968
H    4.03325844   0.67612976   0.62981975
H    2.35275912   2.58545899   1.52078938
H    2.89078903   4.45838881  -0.21150991
H    4.02856874   3.38438869  -2.35922909
H    4.23590851   0.80520970  -2.03952932

