%chk=mol_3241.chk
# wB97XD/Def2SVP opt freq pop=full gfinput

C 5 H 10 O 2

1 2
C    1.82783937  -0.45372984  -1.14206958
C    2.84539890  -0.13148995  -0.05469998
O    4.01539850  -0.90676969  -0.27674991
C    3.16882873   1.33917952  -0.02027999
C    4.38630819   1.89927924  -0.12121996
C    4.64470863   3.36967874  -0.06888998
O    5.51898766   3.63519883   1.01482964
H    0.88437968   0.07866997  -0.98086965
H    1.62063944  -1.52958941  -1.16401947
H    2.21027923  -0.18792994  -2.13498926
H    2.43817902  -0.42436984   0.91866970
H    4.34339809  -0.68263978  -1.16409957
H    2.30616927   1.98989916   0.12066996
H    5.26960802   1.27521944  -0.23827991
H    3.72855854   3.95205832   0.07083998
H    5.12676811   3.70214844  -0.99327964
H    5.14936781   3.18291879   1.79261935

