%chk=mol_4760.chk
# wB97XD/Def2SVP opt pop=full gfinput

C 4 H 9 N 1 O 2

1 2
C    6.035332  -2.614228  -1.167000
C    4.848697  -0.363111   0.157112
N    5.979830   1.984628  -0.651086
C    8.166678   2.933894   0.399620
O    9.299475   1.947117   2.163699
C    9.032721   5.401177  -0.834673
O    8.217946   5.612581  -3.391473
H    5.128565  -4.370899  -0.558565
H    8.057622  -2.749929  -0.745951
H    5.831015  -2.455283  -3.221057
H    5.064145  -0.553501   2.205575
H    2.831225  -0.258855  -0.280832
H    5.250642   2.939450  -2.149639
H   11.097076   5.500369  -0.791058
H    8.248107   6.983029   0.239372
H    9.189569   4.371201  -4.342723

