%chk=mol_4784.chk
# wB97XD/Def2SVP opt freq pop=full gfinput

C 4 H 8 N 2 O 1

1 2
C    1.17894959  -0.15794994  -0.62001979
C    2.52499890  -0.18352993   0.08548997
N    3.04771876   1.17695951   0.22972992
N    4.25939846   1.27659953   0.82802969
C    4.70692825   2.48741889   0.88677967
C    6.03741741   2.73483896   1.52218950
O    6.43922710   3.88024855   1.65745938
H    0.79342973  -1.17624962  -0.73303974
H    1.26360953   0.28376991  -1.61854935
H    0.44281983   0.41930982  -0.05047998
H    3.22747874  -0.79124969  -0.49578980
H    2.41215920  -0.64740980   1.07186961
H    2.33974910   1.76139939   0.68332976
H    4.19086838   3.38279891   0.50094980
H    6.58271742   1.83316934   1.83932936

