%chk=mol_5464.chk
# wB97XD/Def2SVP opt freq pop=full gfinput

C 4 H 8 N 2 O 1

1 2
C    2.39967918   0.63123977   0.67546970
O    3.03221893   1.86866927   0.37325984
N    4.27675867   1.90019929   1.02129960
C    4.85320807   3.02849889   0.76223969
N    6.08917761   3.49922872   1.18014956
C    6.53249741   3.08785892   2.52207899
C    7.16469717   2.50215912   1.30681956
H    1.44573939   0.59116977   0.14304996
H    2.20765901   0.55802977   1.75034928
H    3.02295876  -0.20576993   0.34525988
H    4.35984802   3.78339863   0.12372996
H    5.82510805   2.49715900   3.08788896
H    7.04964733   3.87559843   3.05120873
H    8.12393761   2.87934899   0.98366964
H    6.90545750   1.49526942   1.00836957

