%chk=mol_4310.chk
# wB97XD/Def2SVP opt freq pop=full gfinput

C 5 H 9 N 1 O 1

1 2
C    0.95447963  -0.16939995  -0.15888993
C    2.42990923   0.07225997  -0.10763996
C    3.05790901   1.24735951   0.08216997
C    2.43245888   2.59473896   0.26990989
C    4.54933834   1.20511961   0.10178997
N    5.28700829   2.25409913   0.27944991
O    6.63456774   1.87542927   0.24485990
H    0.68370974  -0.93467963   0.57583982
H    0.67495978  -0.53744984  -1.15105951
H    0.35573986   0.71791971   0.05484998
H    3.02030873  -0.83416969  -0.23870991
H    1.34400952   2.57965899   0.18199994
H    2.80269885   3.29630876  -0.48562980
H    2.67605901   2.99229884   1.26074958
H    5.01142788   0.21148992  -0.04435998
H    7.09242725   2.72499895   0.38636985

