%chk=mol_5974.chk
# wB97XD/Def2SVP opt pop=full gfinput

C 5 H 5 N 1 O 1

1 2
O    1.981246  -0.157131   0.325827
C    4.538102   0.031596   0.070581
C    5.711036   2.366069  -0.095223
C    8.328590   2.415864  -0.355023
C    9.657275   0.148835  -0.437755
C    8.302077  -2.084066  -0.255491
N    5.766461  -2.188208  -0.002627
H    1.290116   1.534458   0.347993
H    4.650748   4.114028  -0.027571
H    9.326006   4.205680  -0.491971
H   11.696271   0.120394  -0.638973
H    9.247356  -3.904514  -0.309651

