%chk=mol_1960.chk
# wB97XD/Def2SVP opt freq pop=full gfinput

C 5 H 8 N 2

1 2
N    0.92124963  -0.02371999   0.06643997
C    2.21389914   0.01754999   0.06755998
N    2.88282895   1.19618964   0.26917988
C    4.25950861   1.31637955  -0.18792994
C    5.06643820   0.04582999   0.11575995
C    4.29069853  -1.22268951  -0.11117996
C    2.95064902  -1.25074959  -0.15202995
H    0.55300981   0.90889966   0.25400990
H    2.33270907   2.03964925   0.17503995
H    4.73096848   2.18153930   0.28992987
H    4.25479841   1.50373936  -1.26878953
H    5.40247774   0.05959998   1.15906954
H    5.96494770   0.04219998  -0.51080984
H    4.84881830  -2.14695930  -0.22264992
H    2.37342906  -2.15458918  -0.29917988

