%chk=mol_4654.chk
# wB97XD/Def2SVP opt pop=full gfinput

C 4 H 9 N 1 O 2

1 2
C    4.749600  -5.741782   0.621059
C    5.080264  -3.597604  -1.266740
C    5.525880  -4.630339  -3.937944
O    6.178252  -2.636791  -5.638073
O    2.789576  -2.131252  -1.228322
N    3.219942   0.229772  -2.367109
C    1.182912   1.559837  -2.182917
H    4.399585  -4.985570   2.516038
H    6.428432  -6.946841   0.693870
H    3.111151  -6.911938   0.137062
H    6.658677  -2.390069  -0.675010
H    3.818286  -5.535310  -4.676694
H    7.075172  -5.998690  -3.963209
H    5.161295  -1.185425  -5.086330
H    1.127940   3.485959  -2.966171
H   -0.551668   0.858370  -1.264416

