%chk=mol_4706.chk
# wB97XD/Def2SVP opt freq pop=full gfinput

C 4 H 10 N 2 O 1

1 2
C    2.61123896  -0.34384990   1.50272942
C    2.64461899   0.10900996   0.05048998
N    3.11315894   1.48511946  -0.10123996
C    2.13813925   2.53505921   0.16654994
C    4.47387838   1.68814933  -0.17570993
N    4.88197803   2.97371888  -0.30497989
O    5.31716824   0.79839969  -0.13289995
H    2.28509903  -1.38658941   1.56637931
H    1.91710937   0.26368991   2.09174919
H    3.59994864  -0.26540992   1.96587932
H    1.64778936   0.02955999  -0.39741984
H    3.30355883  -0.55904979  -0.51624978
H    1.24466944   2.35303926  -0.43793982
H    2.51451921   3.53311872  -0.06364997
H    1.87305927   2.50742912   1.22750962
H    4.35659838   3.54276872  -0.95062965
H    5.88443756   3.03986883  -0.43158984

