%chk=mol_6429.chk
# wB97XD/Def2SVP opt freq pop=full gfinput

C 5 H 6 O 1 S 1

1 2
C    0.89608967   0.10639996  -0.00828000
C    2.38539910   0.06429998   0.00008000
C    3.27705884   1.11957955   0.00492000
C    4.62114811   0.66943973   0.01229000
O    5.71277761   1.45386934   0.01824999
C    4.73082829  -0.69735974   0.01289999
S    3.19356871  -1.44849944   0.00429000
H    0.53423977   1.13993955  -0.00039000
H    0.48781982  -0.39764985   0.87391967
H    0.49890980  -0.38047987  -0.90505970
H    2.96611881   2.15662909   0.00313000
H    5.45331812   2.39059901   0.01676999
H    5.63407755  -1.29042947   0.01786999

