%chk=mol_1099.chk
# wB97XD/Def2SVP opt freq pop=full gfinput

C 4 H 9 N 1 O 1

1 2
N    1.85738933  -0.93568969  -0.94759965
C    2.02945924  -0.22995992   0.32601988
C    2.82876897   1.06904960   0.15779994
O    4.17323828   0.73582977  -0.20953992
C    5.04321814   1.77116942  -0.39907983
C    4.82858849   3.08620882  -0.28668988
H    1.51269937  -1.87696922  -0.76683968
H    2.77946901  -1.04591954  -1.37497950
H    2.55318904  -0.89397967   1.02242959
H    1.04165959  -0.00508000   0.73999971
H    2.83275914   1.60514939   1.11444950
H    2.36673903   1.69740927  -0.61368978
H    6.01371765   1.37387955  -0.67606974
H    3.87120843   3.50862861  -0.01501999
H    5.63796806   3.78439856  -0.47609982

