%chk=mol_7038.chk
# wB97XD/Def2SVP opt freq pop=full gfinput

C 6 H 13 N 1

1 2
C    0.95575964  -0.13001995  -0.25813991
C    2.47584915  -0.11564995  -0.23420992
C    3.01702881   1.25205958   0.18871993
C    4.53562832   1.28037953   0.22041991
N    5.19651794   1.21403956  -1.09222960
C    5.19906807   2.12417936   1.28403950
C    5.22910833   0.62740976   1.39178944
H    0.59087974  -1.11863959  -0.55337983
H    0.56855983   0.60268974  -0.97305959
H    0.54538977   0.10235996   0.72953969
H    2.85279894  -0.38239986  -1.22848952
H    2.83262897  -0.88851970   0.45697984
H    2.61204886   1.50744939   1.17632961
H    2.65933919   2.02528930  -0.50276983
H    6.21058750   1.18694961  -0.99731964
H    4.98878765   2.05114913  -1.63611948
H    4.57405806   2.66784906   1.98412931
H    6.12723780   2.63251901   1.05026960
H    6.17048740   0.11859996   1.21954954
H    4.62094831   0.16123994   2.15897918

