%chk=mol_2475.chk
# wB97XD/Def2SVP opt pop=full gfinput

C 6 H 8 O 1

1 2
C    1.856410  -0.025700   0.189086
C    4.669721   0.035168  -0.096622
C    5.970835   2.193348  -0.386336
O    8.558589   2.323683  -0.664560
C    9.893831   0.089460  -0.658381
C    8.829424  -2.188076  -0.383558
C    6.027055  -2.471667  -0.051892
H    1.032603   1.872227   0.137478
H    1.334638  -0.892914   1.993283
H    1.003104  -1.126466  -1.340761
H    5.148446   4.064706  -0.438133
H   11.894296   0.421201  -0.904196
H    9.985691  -3.880118  -0.395520
H    5.296014  -3.679202  -1.567377
H    5.661771  -3.421576   1.752192

