%chk=mol_0007.chk
# wB97XD/Def2SVP opt pop=full gfinput

C 3 H 6

1 2
C   -0.050399   1.637202  -0.107582
C   -1.389969  -0.866402  -0.107903
C    1.441540  -0.771311   0.080540
H    0.031029   2.684734  -1.865386
H   -0.200991   2.807906   1.566677
H   -2.214986  -1.514332  -1.866086
H   -2.447725  -1.391027   1.565714
H    2.301479  -1.231629   1.881468
H    2.533518  -1.355236  -1.550993

