%chk=mol_3347.chk
# wB97XD/Def2SVP opt freq pop=full gfinput

C 5 H 10 O 2

1 2
C    2.87576890  -0.93968964   0.77244973
O    4.05839825  -0.49385980   0.12357996
C    4.24088860   0.91299969   0.28042990
C    5.55319786   1.29954958  -0.33591986
C    6.79573774   0.82202971   0.34376988
C    5.60709810   1.66901934  -1.79991937
O    5.61466789   2.66848898  -0.76829976
H    2.77102900  -2.01424909   0.59909976
H    1.99670923  -0.43200982   0.36295989
H    2.94302893  -0.76578975   1.85093927
H    4.24099874   1.17348957   1.34545958
H    3.40869856   1.43857956  -0.20366992
H    7.69205713   1.30868948  -0.05675998
H    6.91156721  -0.25744990   0.21043992
H    6.75492764   1.03324962   1.41802955
H    4.70933819   1.56541932  -2.39628911
H    6.52793741   1.50365937  -2.34606910

