%chk=mol_7024.chk
# wB97XD/Def2SVP opt freq pop=full gfinput

C 6 H 9 N 1

1 2
C    0.99999964   0.00000000   0.00000000
C    2.44399905   0.00000000   0.00000000
C    3.63415861   0.00000000   0.00000000
C    5.06633806   0.03852998   0.03072999
C    5.84217787  -0.74596977  -1.00274956
N    5.75960779   0.70624971  -1.07214963
C    6.98753738   1.37924945  -0.66309977
H    0.60596979   1.02085960   0.01164000
H    0.60591978  -0.52053982   0.87823963
H    0.60600978  -0.50031978  -0.88994968
H    5.50468779   0.11609995   1.02091956
H    5.29509783  -1.28289962  -1.76826930
H    6.78033733  -1.19915950  -0.70797974
H    6.77574730   2.43664908  -0.47284982
H    7.72431707   1.33047950  -1.47147942
H    7.45319748   0.96544963   0.23932990

