%chk=mol_3990.chk
# wB97XD/Def2SVP opt freq pop=full gfinput

C 5 H 11 N 1 O 1

1 2
C    0.93377966  -0.04800998  -0.00854000
C    2.45003915   0.02565999   0.03519998
C    3.19072890   1.09226966   0.88679969
N    2.41569924   1.46950936   2.06899929
C    4.20744848   0.00217000   1.28363955
C    3.17823887  -1.07360959   0.86200970
O    3.68524861  -2.19891906   0.12056996
H    0.61239976  -0.89791965  -0.61859971
H    0.51816982   0.86067969  -0.45439985
H    0.49698982  -0.17208993   0.98668963
H    2.81857896   0.05065998  -1.00318956
H    3.60200858   1.94163918   0.33485985
H    2.04595923   0.70195973   2.62821913
H    1.62444937   2.08018923   1.86764932
H    5.11103773   0.00900000   0.66148973
H    4.52119827  -0.02906999   2.33184910
H    2.58604908  -1.43398952   1.71244943
H    4.23334837  -1.82252932  -0.58859974

