%chk=mol_1929.chk
# wB97XD/Def2SVP opt pop=full gfinput

C 6 H 9 N 1

1 2
N    1.898665   0.204204  -0.387451
C    4.623139   0.010979  -0.022072
C    5.418828  -2.454168   1.325889
C    6.250269  -1.623161   3.919670
C    6.694525  -3.114647   5.907227
C    6.403715   1.089030   3.914076
C    5.512274   2.027997   1.744123
H    1.281178  -1.282670  -1.437855
H    1.497608   1.795807  -1.387872
H    5.576488   0.160816  -1.853897
H    7.018878  -3.307493   0.317871
H    3.896219  -3.854928   1.402876
H    6.484709  -5.148937   5.764799
H    7.238067  -2.345226   7.728394
H    7.080993   2.204252   5.484779
H    5.397285   4.023019   1.324452

