%chk=mol_5967.chk
# wB97XD/Def2SVP opt freq pop=full gfinput

C 5 H 7 N 1 O 1

1 2
O    1.83473933   0.45770982   1.06884956
C    2.70377898   0.08645996   0.29278991
C    2.85195899  -1.33030951  -0.21499993
C    4.12779856  -1.32751954  -1.05712962
C    4.64267826   0.07415996  -0.99285960
C    3.86317849   1.20530963  -1.58552945
N    3.74689865   0.86698967  -0.20583992
H    1.97682917  -1.60989940  -0.80780971
H    2.95185900  -2.00923920   0.63752973
H    4.86022806  -2.03559923  -0.65572977
H    3.91392851  -1.61905944  -2.09107924
H    5.68386745   0.18515992  -0.72887975
H    4.35819864   2.15293932  -1.75340927
H    2.98645878   1.01128960  -2.18828917

