%chk=mol_0337.chk
# wB97XD/Def2SVP opt freq pop=full gfinput

C 5 H 11 N 1

1 2
C    0.67384976   1.06811965   0.83495969
C    2.16187906   1.04949963   0.97000962
C    3.00743890   1.44083953   0.00407000
C    4.50623798   1.41124952   0.13446994
C    5.11020803   2.81429911   0.00770000
N    6.56737709   2.77408910   0.12112996
H    0.27617991   0.05696998   0.96258962
H    0.35120985   1.44147944  -0.14192995
H    0.23807991   1.70961940   1.60676944
H    2.55286884   0.68800974   1.91885924
H    2.61379910   1.79255939  -0.94785964
H    4.90755844   0.76046973  -0.65230972
H    4.79985857   0.96690959   1.09402966
H    4.70792818   3.47193861   0.78692973
H    4.84548807   3.25218892  -0.96135962
H    6.82690763   2.41465902   1.03928959
H    6.93261719   3.72474861   0.07525998

