%chk=mol_4555.chk
# wB97XD/Def2SVP opt pop=full gfinput

C 5 H 7 N 1 O 1

1 2
C    1.579376  -0.458901   3.342756
C    2.861820  -0.167090   1.179775
C    4.753550   1.870583   0.687841
O    7.065063   0.661555   0.015552
C    9.075240   2.423366  -0.420162
C    8.843049   3.735818  -2.863937
N    8.653831   4.812225  -4.765681
H    0.235233  -1.994436   3.560074
H    1.841557   0.802302   4.938629
H    2.534576  -1.489312  -0.359955
H    5.038539   3.053571   2.363858
H    4.085248   3.054856  -0.872184
H   10.833158   1.331577  -0.408748
H    9.189700   3.769664   1.149086

