%chk=mol_2579.chk
# wB97XD/Def2SVP opt pop=full gfinput

C 5 H 8 O 2

1 2
C    1.813646  -0.026381  -0.171209
C    4.685633   0.015855  -0.015949
O    5.686998   0.333631  -2.489317
C    5.782770  -2.348589   1.286904
O    6.977020  -1.575106   3.627027
C    6.857400   1.023192   3.581315
C    5.653607   2.054983   1.642304
H    0.938986  -0.227240   1.694876
H    1.170704  -1.591830  -1.364477
H    1.094737   1.711619  -1.039482
H    7.497451   0.617033  -2.313063
H    7.222212  -3.279072   0.123229
H    4.324203  -3.747365   1.754630
H    7.747934   1.946834   5.164395
H    5.381052   4.051384   1.332711

