%chk=mol_7093.chk
# wB97XD/Def2SVP opt freq pop=full gfinput

C 6 H 7 N 1

1 2
C    0.85897970   0.10267996  -0.06944998
C    2.33283901   0.05784998  -0.32046989
C    3.22090888   0.83768970   0.31744990
C    4.66381788   0.83988971   0.11674995
C    5.44451761   1.67503941   0.82427967
C    5.27323771  -0.04298998  -0.83295971
N    5.77638817  -0.75505972  -1.60057950
H    0.50929981  -0.87762970   0.26839989
H    0.33181986   0.35658988  -0.99412966
H    0.58926976   0.84200966   0.69121975
H    2.65238881  -0.66338974  -1.07081962
H    2.84479904   1.54211950   1.05935955
H    5.03773832   2.36505914   1.55671942
H    6.52334738   1.69214928   0.68933976

