%chk=mol_3532.chk
# wB97XD/Def2SVP opt pop=full gfinput

C 7 H 10

1 2
C    4.013514  -1.247994   2.744260
C    4.923133  -0.317587   0.177030
C    5.686904   2.441148   0.204752
C    3.537624   4.298409   0.410392
C    8.138559   3.092461   0.000000
C    9.025464   5.597010   0.000000
C    9.776215   7.717093   0.000000
H    3.582505  -3.269226   2.653591
H    2.295356  -0.266036   3.341773
H    5.460288  -0.966992   4.195457
H    3.433595  -0.604334  -1.236863
H    6.513489  -1.506641  -0.424300
H    2.131460   3.926284  -1.063122
H    4.132661   6.266200   0.194169
H    2.611526   4.132718   2.253272
H    9.568193   1.625750  -0.160683
H   10.444252   9.615437   0.000454

