%chk=mol_2656.chk
# wB97XD/Def2SVP opt pop=full gfinput

C 6 H 8 O 1

1 2
C    1.436041   1.103468   1.369655
C    3.299613   1.348395  -0.326545
C    5.873703   2.230784   0.196966
O    7.428967   3.329187  -1.735241
C    6.402468   5.046721   0.095828
C    7.934922   6.171127   2.114037
C   10.169864   7.321177   1.805255
H   -0.416458   0.429119   0.802586
H    1.720444   1.564561   3.346705
H    2.907552   0.851057  -2.283469
H    6.869079   1.102674   1.593341
H    4.908053   6.282451  -0.574269
H    7.152708   6.060956   4.012418
H   11.028272   7.479026  -0.051042
H   11.182511   8.112406   3.402225

