%chk=mol_0420.chk
# wB97XD/Def2SVP opt pop=full gfinput

C 4 H 10 N 2

1 2
C    1.645649  -0.778359  -0.698424
C    3.124417   0.876417   1.118548
C    5.600279   1.687941  -0.069372
N    5.717744   3.718036  -1.437609
N    7.762050   0.313090   0.195228
C    8.293385  -1.413062   2.228460
H   -0.184267  -1.290362   0.117617
H    2.677307  -2.522482  -1.121723
H    1.304308   0.199763  -2.490187
H    3.468781  -0.136948   2.886254
H    2.018624   2.563035   1.586709
H    3.978554   4.565938  -1.530130
H    9.281296   1.250186  -0.514024
H    8.174747  -0.453534   4.055201
H   10.205769  -2.169292   2.021705
H    6.976907  -3.007707   2.210299

