%chk=mol_1639.chk
# wB97XD/Def2SVP opt pop=full gfinput

C 5 H 8 N 2

1 2
C    1.944528  -0.003420   0.271119
N    4.678357   0.046279  -0.084282
C    5.870056   1.949555   1.582324
C    7.874678  -0.041272   2.314367
C    5.915107  -1.991072   1.378461
C   10.221566   0.058033   0.915421
N   12.143361   0.134870  -0.142240
H    1.135990  -1.631968  -0.717888
H    1.097421   1.697125  -0.550194
H    1.366839  -0.110284   2.258393
H    4.727358   2.584144   3.194374
H    6.565683   3.629540   0.593790
H    8.209008  -0.143203   4.357501
H    6.647678  -3.543766   0.222648
H    4.788944  -2.814502   2.914959

