%chk=mol_0381.chk
# wB97XD/Def2SVP opt freq pop=full gfinput

C 4 H 6 N 2

1 2
C    0.99999964   0.00000000   0.00000000
C    2.44399905   0.00000000   0.00000000
C    3.63415861   0.00000000   0.00000000
C    5.07040787  -0.01846999  -0.02651999
N    5.71290779  -1.19786954  -0.14805993
N    5.63176775   1.12687957   0.08718996
H    0.60596979   1.02086961   0.01169000
H    0.60594976  -0.52054983   0.87824970
H    0.60594976  -0.50030982  -0.88992965
H    5.23156786  -2.01241922   0.20822993
H    6.68949747  -1.13899958   0.11449996
H    4.92834806   1.86943924   0.15917994

