%chk=mol_0052.chk
# wB97XD/Def2SVP opt freq pop=full gfinput

C 2 H 7 N 1 O 1

1 2
N    0.97306967   0.00114000   0.03759999
C    2.43163919   0.01318999  -0.00770000
C    3.00113893   1.43468940  -0.00790000
O    4.42464828   1.39642942  -0.02801999
H    0.64405978  -0.96305966  -0.00423000
H    0.60335976   0.45827985  -0.79627967
H    2.78089905  -0.52223980  -0.89806968
H    2.82555914  -0.53680980   0.85450965
H    2.68207884   1.99301934   0.87868971
H    2.66816902   1.98351932  -0.89477962
H    4.71191835   1.02900958   0.82580972

