%chk=mol_0107.chk
# wB97XD/Def2SVP opt freq pop=full gfinput

C 3 H 9 N 1 O 1

1 2
N    1.16814959  -0.17674993   0.05319998
C    2.62682891  -0.11930995   0.09819996
C    3.10081887   1.32830954  -0.02890999
C    4.62068796   1.43200946  -0.01946999
O    5.15932798   0.94757962   1.20396960
H    0.87053972  -1.14841962   0.13462995
H    0.83944970   0.14410995  -0.85639971
H    3.03915906  -0.72805971  -0.71368968
H    2.96719885  -0.55038983   1.04546964
H    2.69256902   1.91348922   0.80507970
H    2.72069907   1.76845932  -0.95879960
H    4.93363857   2.47338915  -0.14220995
H    5.05648851   0.85000974  -0.83670974
H    4.76774836   1.47320950   1.92391920

