%chk=mol_6992.chk
# wB97XD/Def2SVP opt pop=full gfinput

C 5 H 6 N 2

1 2
C    2.090850   0.067992   0.130693
C    4.361205   0.069240   0.125837
C    7.059299   0.081863   0.116823
N    8.157287  -2.087750  -0.199876
C   10.891437  -1.364798  -0.179316
C   10.987340   1.533607  -0.446542
N    8.457715   2.225474   0.317587
H    0.079104   0.040988   0.138177
H   11.728926  -1.974443   1.614034
H   11.897224  -2.292710  -1.729855
H   11.313809   2.076431  -2.416941
H   12.436439   2.386327   0.753585
H    7.692263   3.816321  -0.417554

