%chk=mol_3970.chk
# wB97XD/Def2SVP opt freq pop=full gfinput

C 5 H 9 N 1 O 1

1 2
C    0.91525966  -0.33289987  -0.11532996
C    2.32801914   0.13735995  -0.14339995
C    3.32474875  -0.48786983  -1.06074965
N    2.79156899   0.81777972  -1.31076956
C    3.55211854   1.97452927  -1.29741943
C    4.43467855   2.24625921  -0.10154996
O    3.47905874   2.79753900  -2.21222901
H    0.25431991   0.47810984   0.20671992
H    0.80908972  -1.15983951   0.59368980
H    0.57384980  -0.68027973  -1.09641957
H    2.65608907   0.51610982   0.81489968
H    3.00124907  -1.22079957  -1.78806925
H    4.36639833  -0.53537983  -0.77871972
H    3.83381844   2.68526888   0.69924974
H    5.21543789   2.95725870  -0.38891986
H    4.92988825   1.34363949   0.26013991

