%chk=mol_2614.chk
# wB97XD/Def2SVP opt pop=full gfinput

C 6 H 8 O 1

1 2
C    4.333086  -1.063916  -2.644010
C    4.665148  -0.014759   0.010450
C    5.707162   2.600906   0.006709
C    4.364001   4.836886  -0.021978
O    5.946798   6.854661  -0.014929
C    8.335771   5.926200   0.020371
C    8.298317   3.328601   0.036150
H    3.567501  -2.983991  -2.566135
H    6.139248  -1.132456  -3.653823
H    3.031291   0.102952  -3.752958
H    5.925746  -1.259540   1.084759
H    2.838350  -0.034544   0.987458
H    2.371228   5.285640  -0.049530
H    9.826557   7.321838   0.030387
H    9.934007   2.105325   0.063665

