%chk=mol_6228.chk
# wB97XD/Def2SVP opt freq pop=full gfinput

C 5 H 5 N 1 O 1

1 2
O    0.99043965   0.01634999   0.02064999
C    2.41999912   0.00000000   0.00000000
C    2.86737895  -0.77918971  -1.23616958
C    4.29510832  -1.10821962  -1.17090952
N    5.42155838  -1.37800956  -1.11298954
C    2.90201902   1.36116946   0.00000000
C    3.29929876   2.48306894   0.00000000
H    0.72656971   0.60402977   0.75088972
H    2.74428892  -0.51943982   0.90958965
H    2.64809895  -0.21386991  -2.15070915
H    2.28606915  -1.70661938  -1.31299949
H    3.65957880   3.48670864  -0.00278000

