%chk=mol_6375.chk
# wB97XD/Def2SVP opt freq pop=full gfinput

C 4 H 6 N 2 O 1

1 2
O    0.96231967   2.37403893  -0.08870997
N    2.35081911   2.54757905  -0.09527996
C    2.91406894   1.38981950   0.02730999
C    4.40911818   1.22821951   0.05616998
C    5.16047812   2.54547906  -0.07407997
C    6.61007738   2.31961918  -0.03784999
N    7.75428724   2.12775922  -0.00865000
H    0.63238978   3.28768897  -0.18442993
H    2.31728911   0.46382985   0.11708996
H    4.67964840   0.54259980  -0.75642967
H    4.66545820   0.72235972   0.99464965
H    4.87733841   3.22466898   0.74003971
H    4.89207840   3.04433870  -1.01150966

