%chk=mol_4297.chk
# wB97XD/Def2SVP opt freq pop=full gfinput

C 4 H 3 N 1 O 2

1 2
C    1.11564958   0.02559999   0.07173997
C    2.31365919   0.03458999  -0.01104000
C    3.73534846   0.04765998  -0.11373996
N    4.38042831  -1.05950952  -0.03540998
O    5.73243809  -0.68064976  -0.18068993
C    5.72179794   0.73965973  -0.35922986
O    4.39033842   1.20618963  -0.29879990
H    0.05235998   0.01070000   0.14181995
H    6.15501738   0.98285967  -1.33436942
H    6.31700754   1.20652950   0.43157986

