%chk=mol_1489.chk
# wB97XD/Def2SVP opt freq pop=full gfinput

C 5 H 12 N 2

1 2
C    1.50899947  -0.00029000   1.68472946
C    2.83507895  -0.04613998   0.94137961
N    3.56283879   1.20628953   1.14556956
C    4.83967829   1.16216958   0.41712984
C    5.66142797   2.43233919   0.73096973
N    6.85108757   1.56570947   0.94321960
C    5.93283796   0.43579984   1.23268962
H    0.95520967  -0.93062967   1.52393937
H    0.88569969   0.82861972   1.33268940
H    1.66203940   0.11826996   2.76262879
H    2.63938904  -0.20180993  -0.12588996
H    3.41886878  -0.89859968   1.30721951
H    3.65800881   1.39145947   2.14479923
H    4.79068804   0.90884966  -0.64793974
H    5.37856817   2.98903894   1.63297939
H    5.76191759   3.14296889  -0.09515996
H    7.39593744   1.42854941   0.09121997
H    6.25748777  -0.52688980   0.82583970
H    5.73980808   0.31019989   2.30511928

