%chk=mol_4774.chk
# wB97XD/Def2SVP opt pop=full gfinput

C 4 H 8 N 2 O 1

1 2
C    2.439599   5.438254   2.691386
C    4.817082   4.094470   1.953637
N    6.790296   5.354766   1.255496
N    8.829499   3.915267   0.637272
C   11.082809   4.944657  -0.141219
C   11.212596   7.782629  -0.282873
O   12.880562   3.582448  -0.705132
H    1.966090   4.935813   4.637709
H    0.908221   4.812622   1.455316
H    2.665988   7.484752   2.537203
H    4.780440   2.009384   2.043247
H    8.752191   2.002108   0.722234
H    9.954453   8.470017  -1.769369
H   13.148167   8.357616  -0.731834
H   10.695227   8.619079   1.534004

