%chk=mol_0592.chk
# wB97XD/Def2SVP opt freq pop=full gfinput

C 5 H 8 O 1

1 2
C    0.39986986   1.37397945   0.31048989
C    1.34023941   0.29686987  -0.21421993
O    0.98505962  -1.01553965   0.24263991
C   -0.35502985  -1.29101944   0.18971993
C   -1.32510960  -0.38983986  -0.00097000
C   -1.03074956   1.07076955  -0.12260995
H    0.70455974   2.36352921  -0.04573998
H    0.44535983   1.38793957   1.40691948
H    2.36124897   0.49612981   0.12794995
H    1.35895956   0.29158992  -1.31125951
H   -0.53780979  -2.34730911   0.34230986
H   -2.36153913  -0.71088970  -0.04100998
H   -1.18574953   1.37753940  -1.16345954
H   -1.72904932   1.64555943   0.49555981

