%chk=mol_6399.chk
# wB97XD/Def2SVP opt pop=full gfinput

C 4 H 8 N 2 O 1

1 2
O    2.636773   1.774018   3.110187
N    4.804704   3.017760   2.247130
C    6.589418   1.382580   1.937687
N    8.986725   1.861834   1.100595
C    9.622051   4.262410  -0.033278
C   12.394638   4.220533  -0.607207
C   13.386801   4.385242  -2.930852
H    1.437269   3.160699   3.288199
H    6.297097  -0.644189   2.347569
H    9.928394   0.359048   0.376433
H    9.225076   5.818032   1.274053
H    8.503654   4.557830  -1.751323
H   13.655199   4.077254   1.009548
H   12.206875   4.557453  -4.601219
H   15.420675   4.363472  -3.207961

