%chk=mol_4561.chk
# wB97XD/Def2SVP opt pop=full gfinput

C 5 H 8 N 2

1 2
C   -2.776915   1.303646   0.279302
C   -2.734547  -1.483719  -0.431179
C   -0.497319  -2.880963   0.582678
C    1.871150  -2.030813   0.831234
N    2.956817   0.199423   0.137818
C    1.717289   2.133406  -0.652825
N   -0.788205   2.684791  -0.983262
H   -4.596362   2.109086  -0.296271
H   -2.627305   1.557777   2.330543
H   -2.817790  -1.731840  -2.488637
H   -4.440819  -2.363877   0.345839
H   -0.869879  -4.808994   1.189639
H    3.239690  -3.347291   1.631552
H    2.882758   3.770287  -1.222294
H   -1.173747   4.545755  -1.230986

