%chk=mol_6995.chk
# wB97XD/Def2SVP opt freq pop=full gfinput

C 5 H 4 N 2

1 2
C    0.96826959   0.02104999   0.00191000
C    2.16895938   0.02358999   0.00032000
C    3.58891869   0.02268999  -0.00262000
N    4.33701801   1.10424960  -0.00755000
C    5.63318777   0.65545976  -0.01067000
C    5.67351818  -0.71855974  -0.00746000
N    4.36226845  -1.10790956  -0.00178000
H   -0.09677996   0.03207999   0.00272000
H    6.46632767   1.34610939  -0.01529999
H    6.48939753  -1.42673945  -0.00871000
H    4.00995874  -2.05429912   0.00173000

