%chk=mol_4501.chk
# wB97XD/Def2SVP opt freq pop=full gfinput

C 4 H 10 N 2 O 1

1 2
C    1.98428929  -1.17280960  -1.45116949
C    2.29919910  -0.58465981  -0.08246997
C    3.23334885   0.62107980  -0.16160995
N    4.55736876   0.17524993  -0.60945982
C    5.38246822   1.15011954  -0.77973968
N    6.67809772   0.99823964  -1.20277965
O    7.16331720  -0.30030987  -1.00069964
H    1.28658950  -2.00962925  -1.34941947
H    2.88776898  -1.54600942  -1.94215930
H    1.52276945  -0.42378986  -2.10148907
H    2.74230886  -1.36261952   0.55153978
H    1.36020947  -0.27581990   0.39182985
H    3.31312871   1.07070959   0.83513969
H    2.81789899   1.36984956  -0.84646970
H    5.11889791   2.21016932  -0.60923976
H    7.34054708   1.72641933  -0.94697964
H    6.34299755  -0.84439969  -1.01584959

