%chk=mol_3687.chk
# wB97XD/Def2SVP opt pop=full gfinput

C 7 H 10

1 2
C    1.891540  -0.101365   0.006520
C    4.762110   0.000000   0.000000
C    5.672996   2.572238   0.000000
C    6.423746   4.692322   0.000000
C    7.310651   7.196871   0.000000
C   10.102513   7.702618  -0.010998
C    5.641362   9.105834   0.021524
H    1.241947  -2.065301   0.005272
H    1.105395   0.836563  -1.663375
H    1.113238   0.831839   1.682726
H    5.471343  -1.006600  -1.664849
H    5.479053  -1.009473   1.659784
H   11.192885   5.945437   0.078386
H   10.643448   8.853764   1.621309
H   10.654559   8.695405  -1.740400
H    3.616860   8.765003   0.033391
H    6.260323  11.061172   0.025851

