%chk=mol_6050.chk
# wB97XD/Def2SVP opt pop=full gfinput

C 4 H 7 N 1 O 2

1 2
O    2.392563   0.223725   1.326115
C    4.399358   0.126253   0.155638
C    5.815745  -2.365124  -0.175367
N    7.643281  -2.411385  -2.278159
C    9.224150  -0.155392  -2.151189
C    7.537721   2.149148  -2.481210
O    5.552488   2.278991  -0.630583
H    4.418199  -3.852037  -0.515744
H    6.788406  -2.769450   1.607458
H    8.733842  -3.991895  -2.120802
H   10.225043  -0.082846  -0.337505
H   10.640897  -0.209514  -3.657678
H    8.669535   3.869479  -2.284263
H    6.663515   2.190930  -4.358710

