%chk=mol_1191.chk
# wB97XD/Def2SVP opt pop=full gfinput

C 6 H 7 N 1

1 2
C    1.776021   0.036604   0.011622
C    4.649652   0.025530   0.008749
C    5.720938   2.707637   0.000000
C    8.449627   2.689515  -0.002721
C   10.698666   2.674586  -0.004970
C   13.599716   2.653780  -0.007880
N   15.794841   2.637869  -0.010072
H    1.052464  -1.901008   0.017896
H    1.036666   0.992371  -1.667400
H    1.040067   1.001952   1.686675
H    5.323378  -1.015199  -1.653057
H    5.326741  -1.005693   1.675110
H    5.027012   3.735516   1.659860
H    5.023629   3.726030  -1.664282

