%chk=mol_0225.chk
# wB97XD/Def2SVP opt pop=full gfinput

C 5 H 9 N 1

1 2
C    1.782805   0.001531   1.862117
C    0.564537   1.864007  -0.061681
C   -2.284112   1.465407   0.140747
C   -2.308716  -1.417616   0.161572
C    0.532487  -1.867560  -0.034147
N    1.495454  -0.024359  -2.028224
H    3.854002  -0.015666   1.928938
H    1.043923   0.022091   3.792114
H    1.317819   3.777430  -0.190919
H   -3.066251   2.265045   1.879767
H   -3.304734   2.241990  -1.481848
H   -3.342529  -2.199792  -1.449836
H   -3.104537  -2.178401   1.911741
H    1.252926  -3.795326  -0.135550
H    0.490327  -0.027817  -3.672380

