%chk=mol_4015.chk
# wB97XD/Def2SVP opt freq pop=full gfinput

C 5 H 7 N 1 O 1

1 2
C    0.93861961   0.03099999  -0.00830000
C    2.42299914  -0.00311000  -0.00040000
C    3.28113890   1.07966959   0.00359000
N    4.56783819   0.60865980   0.01048000
C    4.55609846  -0.75849968   0.01089000
O    5.70073795  -1.42596948   0.01706999
C    3.24331856  -1.16860950   0.00420000
H    0.56386977   1.05921960   0.00151000
H    0.54083985  -0.48431984   0.87166971
H    0.55103981  -0.46397981  -0.90425968
H    3.08692884   2.14408922   0.00215000
H    5.40786839   1.16892958   0.01462999
H    5.47525787  -2.37317896   0.01623999
H    2.89764881  -2.19401908   0.00272000

