%chk=mol_3433.chk
# wB97XD/Def2SVP opt freq pop=full gfinput

C 5 H 10 O 2

1 2
C    2.95805883  -0.04251998   1.25883949
O    2.72020888   0.71168971   0.07519998
C    3.32942867   2.00778913   0.03475999
C    2.92334890   2.61587906  -1.31292951
C    2.83009887   2.91453886   1.16374946
C    4.85787821   1.89738929   0.02948999
O    5.60028791   2.40335917   0.86684966
H    2.51270914  -1.03109956   1.12032962
H    2.47790909   0.42224985   2.12347913
H    4.02787828  -0.17314993   1.43886948
H    3.23327875   1.97035933  -2.14341927
H    3.37525868   3.60153866  -1.46620941
H    1.83414924   2.71485901  -1.38516939
H    3.18748879   2.57598901   2.14201903
H    1.73562932   2.91997886   1.20588958
H    3.18119884   3.94433856   1.03380966
H    5.27810764   1.29535961  -0.79505974

