%chk=mol_5421.chk
# wB97XD/Def2SVP opt freq pop=full gfinput

C 4 H 9 N 1 O 2

1 2
C    1.94089925  -0.01265000   0.48266980
O    3.35230851   0.18729992   0.56404978
C    3.80095863   1.25431955  -0.15904994
O    3.09985876   1.97415924  -0.86109966
C    5.32457829   1.38702953  -0.02085999
C    5.99914789   0.50606978  -1.06472957
N    5.73145771   2.79651904  -0.18775992
H    1.68892932  -0.89182967   1.08135962
H    1.63802934  -0.20054992  -0.55202979
H    1.40856946   0.85063964   0.89306968
H    5.61585760   1.07450962   0.98741961
H    5.71793795   0.80238968  -2.08225918
H    5.70458794  -0.54218978  -0.93825966
H    7.09015703   0.55945981  -0.98242962
H    5.23536777   3.18072891  -0.99602968
H    6.72394753   2.84939909  -0.40546983

