%chk=mol_1474.chk
# wB97XD/Def2SVP opt pop=full gfinput

C 5 H 12 N 2

1 2
C    4.430708  -0.860619  -2.596143
C    4.583380   0.305625   0.031407
N    6.260549   2.507289   0.021864
C    4.936588   4.793196  -0.982884
C    6.120502   6.329222   1.211598
N    8.670101   7.185117   0.485149
C    6.282584   3.732606   2.558784
H    3.262555  -2.567892  -2.548882
H    6.308492  -1.398057  -3.286120
H    3.588212   0.446542  -3.960809
H    5.360359  -1.118264   1.320541
H    2.672300   0.748766   0.703866
H    2.863540   4.736598  -0.903251
H    5.489541   5.337928  -2.902695
H    4.939706   7.773218   2.095026
H    9.616986   5.796886  -0.474964
H    9.790312   7.602387   1.993189
H    7.985265   3.372462   3.676821
H    4.633495   3.338145   3.756322

