%chk=mol_4851.chk
# wB97XD/Def2SVP opt freq pop=full gfinput

C 5 H 5 N 1 O 1

1 2
C    0.99970967  -0.06160998  -0.01054000
C    2.51999903   0.00000000   0.00000000
O    3.01867867  -0.67912972  -1.14676964
C    3.00201893   1.36116946   0.00000000
C    3.39929867   2.48306894   0.00000000
C    3.91444850   3.92977858  -0.00068000
N    4.29683876   5.02390814  -0.00235000
H    0.57222974   0.42693982   0.87131965
H    0.65967977  -1.10273957  -0.03308999
H    0.58789980   0.42303982  -0.90372968
H    2.89400887  -0.53417981   0.87953967
H    2.69814897  -0.20286992  -1.93143928

