%chk=mol_0245.chk
# wB97XD/Def2SVP opt pop=full gfinput

C 4 H 8 N 2

1 2
C    0.801754   2.679877   0.500985
C    2.590890   0.622155  -0.391419
N    1.742233  -1.747562   0.728754
N   -0.651634  -2.566569   0.345650
C   -2.365729  -0.838925   0.023338
C   -1.911401   1.970795  -0.106977
H    1.281574   4.494411  -0.374752
H    1.002594   2.933611   2.550261
H    4.518619   1.041466   0.226616
H    2.599110   0.481937  -2.457740
H    3.003947  -3.169392   0.385863
H   -4.330288  -1.468827  -0.266432
H   -2.400349   2.570935  -2.028243
H   -3.226651   2.916641   1.180210

