%chk=mol_6568.chk
# wB97XD/Def2SVP opt freq pop=full gfinput

C 3 H 8 O 3 S 1

1 2
C    1.22503948  -0.44096982  -0.44103983
C    2.71609902  -0.36079985  -0.18319993
O    3.12549901   0.99121964  -0.31879988
S    4.70658827   1.31263947  -0.09687996
C    4.61704826   3.06643867  -0.36054987
O    5.03735828   1.06666958   1.29071963
O    5.45537806   0.71595973  -1.18204963
H    0.86647969  -1.46934938  -0.34212986
H    0.98783958  -0.07922997  -1.44702947
H    0.67712975   0.19389991   0.26311991
H    3.25299883  -0.98489964  -0.90533966
H    2.93866873  -0.71458972   0.82894969
H    4.24270821   3.25345898  -1.36867940
H    5.62307787   3.47707868  -0.25321990
H    3.95334864   3.50259852   0.38819984

