%chk=mol_3468.chk
# wB97XD/Def2SVP opt pop=full gfinput

C 5 H 10 O 2

1 2
C    4.923473  -2.875899   1.040389
O    6.340522  -0.593733   1.075745
C    5.375496   1.188014  -0.702657
C    6.840808   3.663291  -0.497074
O    5.858624   5.389896  -2.326253
C    6.874824   7.758687  -2.390182
C    8.693609   8.754402  -0.944598
H    5.802612  -4.211897   2.349062
H    4.924230  -3.708512  -0.854081
H    2.982101  -2.524655   1.661636
H    3.365281   1.539276  -0.342343
H    5.547594   0.428779  -2.623015
H    8.854066   3.309666  -0.840569
H    6.623377   4.424662   1.419940
H    5.961954   8.842709  -3.871161
H    9.633881   7.715827   0.547907
H    9.286511  10.696625  -1.242665

