%chk=mol_6126.chk
# wB97XD/Def2SVP opt freq pop=full gfinput

C 4 H 8 N 2 O 1

1 2
O    2.22601914  -0.78589970   0.25663990
C    1.85792935   0.56978977   0.03237999
C    3.09122872   1.39021945  -0.11572996
C    3.72039866   1.58910942  -1.46208942
N    3.00011873   2.68372893  -0.80359966
N    3.93276834   3.48564887  -0.24990991
C    3.55627847   4.71986818  -0.24278991
H    1.40092945  -1.27656949   0.41113985
H    1.27715957   0.91813964   0.89258969
H    1.22276950   0.61103976  -0.85904968
H    3.73782873   1.31603944   0.75109971
H    3.23397899   1.16769946  -2.33176923
H    4.80040789   1.64599931  -1.52385938
H    4.22221851   5.48763752   0.18232994
H    2.58759904   5.07017851  -0.64300978

