%chk=mol_4587.chk
# wB97XD/Def2SVP opt freq pop=full gfinput

C 4 H 10 N 2 O 1

1 2
C    0.83989966  -0.04490998   0.16150995
C    2.35624909   0.06202998   0.04289998
C    3.06309891  -0.79858971   1.08660960
O    2.72293901  -0.41311982  -1.25868952
C    2.79487872   1.54264939   0.15846995
N    3.34081864   2.14699912  -0.93709964
N    2.65375900   2.24374914   1.23709953
H    0.34727985   0.57517976  -0.59603977
H    0.48356980   0.27838990   1.14461946
H    0.50599980  -1.07426953  -0.00913000
H    2.77113891  -0.52903980   2.10634923
H    4.15072823  -0.68829978   1.00857961
H    2.84222913  -1.86032927   0.93078965
H    3.69269872  -0.32364988  -1.31357956
H    2.98062897   1.80286932  -1.82295942
H    3.32111859   3.15829897  -0.85713971
H    2.22872925   1.68762934   1.98529923

