%chk=mol_3737.chk
# wB97XD/Def2SVP opt freq pop=full gfinput

C 6 H 6 O 1

1 2
O    0.93961966   0.06868997   0.01487999
C    2.36249924   0.01611999   0.01544999
C    2.92738891   1.43281937   0.00000000
C    4.37138844   1.43281937   0.00000000
C    5.56154823   1.43281937   0.00000000
C    7.09342766   1.43141949   0.00001000
C    8.29325676   1.43062949   0.00002000
H    0.62181973  -0.85080969   0.02489999
H    2.68810892  -0.54514974  -0.86733967
H    2.68810892  -0.52576983   0.91026962
H    2.54246902   1.98383927   0.86654967
H    2.54246902   1.96480930  -0.87835968
H    9.35818672   1.43129945   0.00001000

