%chk=mol_6426.chk
# wB97XD/Def2SVP opt pop=full gfinput

C 5 H 7 N 1 S 1

1 2
C    1.704949   0.141597  -0.014419
C    4.517201   0.028289   0.000416
C    6.223397   2.003847   0.007540
C    8.762906   1.143454   0.020919
N   10.774368   2.690838   0.029858
C    8.933567  -1.445244   0.023338
S    6.015131  -2.842205   0.009619
H    1.044130   2.102604   0.000208
H    0.922545  -0.801225   1.653095
H    0.942784  -0.769931  -1.708445
H    5.658237   3.969011   0.002853
H   10.612362   4.602693   0.042330
H   12.581816   2.048482   0.053857
H   10.614894  -2.602965   0.032144

