%chk=mol_5039.chk
# wB97XD/Def2SVP opt freq pop=full gfinput

C 4 H 6 N 2 O 1

1 2
C    2.90141892  -1.11516953   0.51077980
N    2.33476925   0.12346995   0.02459999
C    3.07496881   1.24521959   0.01412999
C    2.62797904   2.52273917  -0.21089992
O    3.70327878   3.35829878  -0.13546996
C    4.74000835   2.51533890   0.13104995
N    4.41971827   1.24501944   0.23328991
H    2.18473911  -1.92884934   0.36083984
H    3.12049866  -1.05077958   1.58170938
H    3.81723857  -1.37673938  -0.02934999
H    1.32386947   0.18331994   0.07563997
H    1.67387938   2.97844887  -0.42413983
H    5.71590757   2.96752882   0.23258992

