%chk=mol_4993.chk
# wB97XD/Def2SVP opt freq pop=full gfinput

C 5 H 10 N 2

1 2
C   -1.67372942   0.60289973   0.21309991
N   -1.53220940  -0.78293967  -0.41460985
C   -0.17715994  -0.74307972   0.18374993
C    1.12010956  -1.10813963  -0.49449983
N    2.05370927  -0.04291998  -0.03604999
C    1.17436945   1.02780962   0.51349980
C   -0.17078994   0.77268976  -0.12756994
H   -2.36194897   1.26205957  -0.32232988
H   -1.93030930   0.59531981   1.27883959
H   -1.53005946  -0.76244968  -1.43589950
H   -0.17983992  -1.03001964   1.24807954
H    1.48063946  -2.09722924  -0.19595993
H    1.04819953  -1.08126962  -1.58830929
H    2.63356900  -0.40357986   0.72232974
H    1.12747955   0.96084964   1.60738933
H    1.57429945   2.01093912   0.24827991
H   -0.08560997   1.05691957  -1.19421947

