%chk=mol_6454.chk
# wB97XD/Def2SVP opt freq pop=full gfinput

C 5 H 7 N 1 S 1

1 2
C    0.94266969   0.01727999  -0.00779000
C    2.43480921   0.02927999  -0.00111000
C    3.20136881   1.18164957   0.00194000
S    4.88190794   0.86585963   0.01032000
C    4.61265850  -0.82196969   0.01025000
C    3.27321863  -1.12821960   0.00347000
N    2.81537890  -2.39298916   0.00186000
H    0.53390980   1.03293955   0.00068000
H    0.56093979  -0.50695980   0.87418967
H    0.56943983  -0.48910981  -0.90371966
H    2.85311890   2.20538902  -0.00022000
H    5.45330811  -1.50036943   0.01523999
H    1.82769930  -2.62191916  -0.02186999
H    3.43126869  -3.19955897  -0.01276000

