%chk=mol_1664.chk
# wB97XD/Def2SVP opt pop=full gfinput

C 5 H 12 N 2

1 2
C    1.911609   0.071828   0.313902
N    4.656663   0.021883  -0.005612
C    5.510177  -2.419530  -1.052483
C    4.986269  -2.783340  -3.905100
N    5.972177  -0.703715  -5.470190
C    5.001444   1.718252  -4.498436
C    5.523367   2.103624  -1.648503
H    1.320843   1.858035   1.179510
H    1.310015  -1.430485   1.606381
H    0.873564  -0.155222  -1.461136
H    4.680814  -3.991442   0.015401
H    7.557412  -2.557158  -0.741680
H    5.866012  -4.549799  -4.532621
H    2.952338  -2.990945  -4.242568
H    7.890948  -0.684100  -5.276607
H    5.893338   3.255847  -5.562144
H    2.968590   1.844977  -4.882202
H    7.570942   2.306108  -1.381579
H    4.702470   3.902530  -1.026310

