%chk=mol_4982.chk
# wB97XD/Def2SVP opt freq pop=full gfinput

C 4 H 8 N 2 O 1

1 2
C    1.15374959  -0.01451999   0.33190989
N    2.58877897  -0.05909998   0.35269988
C    3.46272874   1.03660965  -0.11322995
C    4.44698811  -0.04791998  -0.61873978
N    4.72297812   0.15695995  -2.05546927
C    3.27465868  -1.02757967  -0.32579988
O    2.96302891  -2.14756918  -0.65867972
H    0.75392973  -0.99853963   0.59226978
H    0.81513965   0.24365991  -0.67638969
H    0.80784971   0.73309970   1.04882956
H    3.83630848   1.65049946   0.71167976
H    2.98168898   1.67377937  -0.86298972
H    5.33360815  -0.20517991   0.00214000
H    3.87067842   0.26234990  -2.60985899
H    5.17916822  -0.66074973  -2.46610904

