%chk=mol_6085.chk
# wB97XD/Def2SVP opt freq pop=full gfinput

C 4 H 7 N 1 O 2

1 2
O    1.42784953   0.04686998   0.91553962
C    2.39342904   0.03416999   0.16114993
N    2.98454905  -1.14342952  -0.19316992
C    4.02231836  -1.27059960  -1.17565954
C    4.90018845  -0.04476998  -1.15524960
C    3.99291849   1.15606952  -1.30959952
O    2.93517876   1.17654955  -0.33564988
H    2.50377917  -1.96382928   0.15337993
H    4.59724855  -2.17348909  -0.94956964
H    3.54264855  -1.40239954  -2.15151906
H    5.42608786   0.01399999  -0.19450994
H    5.64916801  -0.07910997  -1.95219934
H    4.57088852   2.07711935  -1.18269956
H    3.53487873   1.18932962  -2.30439901

