%chk=mol_5764.chk
# wB97XD/Def2SVP opt freq pop=full gfinput

C 4 H 7 N 1 O 2

1 2
N    1.83158934  -0.57414979  -1.55346942
C    2.94409895  -0.46591982  -0.62347978
C    2.82991886   0.80743974   0.14449994
C    3.77979875   1.74890935   0.18019992
O    3.61567855   2.91688871   0.92641968
C    4.64571810   3.81297851   0.86457968
O    5.69180822   3.71794868   0.23960991
H    1.91527927  -1.44808948  -2.06986928
H    1.90896928   0.16832994  -2.24761915
H    3.89075851  -0.52549982  -1.17163956
H    2.91321898  -1.30826950   0.07554998
H    1.91478932   0.95366967   0.71298975
H    4.71863794   1.67258942  -0.35464984
H    4.38285828   4.67781830   1.49262953

