%chk=mol_6991.chk
# wB97XD/Def2SVP opt pop=full gfinput

C 5 H 8 N 2

1 2
C    1.755367   0.167354   0.043275
C    4.239582   0.278753  -0.413321
C    5.714929   2.647317  -0.198383
N    8.173311   2.566985  -0.506768
C    9.018151   5.227058  -0.164879
C    6.631314   6.851958  -0.286615
N    4.706155   4.996304   0.250238
H    0.760426  -1.618777  -0.118618
H    0.664371   1.800399   0.623005
H    5.307428  -1.390857  -0.937644
H    9.950655   5.404220   1.676187
H   10.366433   5.759337  -1.639621
H    6.365429   7.629391  -2.186262
H    6.650815   8.392066   1.089881
H    2.961163   5.328007  -0.456558

