%chk=mol_5201.chk
# wB97XD/Def2SVP opt freq pop=full gfinput

C 5 H 9 N 1 O 1

1 2
C    0.68452972   0.15806994   1.09093952
N    1.95986927  -0.28620988   0.58838975
C    3.00854897   0.59878975   0.44066983
O    2.94639897   1.77750933   0.78137970
C    4.26247835  -0.01323000  -0.17622994
C    4.58870792   0.66889977  -1.47273946
C    4.69233799   0.04761998  -2.65497899
H    0.11017995  -0.71695971   1.40358949
H    0.15560995   0.68220973   0.29079989
H    0.82501972   0.83414966   1.93876934
H    1.99808931  -1.16861951   0.09565996
H    4.13449860  -1.09202969  -0.31559989
H    5.08440828   0.12450995   0.53434980
H    4.75069809   1.74553931  -1.42415941
H    4.54455805  -1.02237964  -2.75850916
H    4.93501806   0.60858977  -3.55312872

