%chk=mol_3650.chk
# wB97XD/Def2SVP opt freq pop=full gfinput

C 5 H 8 O 2

1 2
O    0.93282962   0.12409995  -0.01279000
C    2.14543915   0.14458995   0.18311994
C    3.03401899   1.34977949  -0.05803998
C    2.28352904   2.67088914  -0.06787997
C    3.30461884   3.62480879   0.49713981
C    3.99253845   2.76257896   1.52936947
O    4.01300859   1.43165946   0.99285960
H    2.67913914  -0.77613974   0.47474983
H    3.57649875   1.19040954  -0.99602968
H    1.40525937   2.63766885   0.58842975
H    1.93960917   2.95037889  -1.06806970
H    4.01553822   3.91148853  -0.28658989
H    2.87045884   4.53449821   0.91911966
H    5.01394844   3.08996892   1.74110925
H    3.42911887   2.73770881   2.46830916

