%chk=mol_1577.chk
# wB97XD/Def2SVP opt freq pop=full gfinput

C 5 H 12 N 2

1 2
C    1.38614953  -0.35746989  -0.70020974
C    2.80150890  -0.27730992  -0.15489995
N    3.29862857   1.07726967  -0.27194989
C    4.60172844   1.47218943  -0.12312995
N    5.60998821   0.67875975   0.00026000
C    4.88205814   2.96495891  -0.09171997
C    4.93404818   3.47091866   1.33765948
H    1.01395965  -1.38445950  -0.64647979
H    1.35233951  -0.03477999  -1.74594939
H    0.70717973   0.28394988  -0.12995996
H    3.43342876  -0.96864963  -0.72319973
H    2.81515884  -0.58761978   0.89661968
H    2.59861922   1.80308926  -0.14799994
H    5.30213785  -0.29175988  -0.03931998
H    4.10197830   3.49518871  -0.65056974
H    5.83766747   3.15775871  -0.59321976
H    3.98491859   3.29211879   1.85274935
H    5.13704824   4.54601812   1.35349941
H    5.72174740   2.96548891   1.90533924

