%chk=mol_6330.chk
# wB97XD/Def2SVP opt freq pop=full gfinput

C 5 H 9 N 1 O 1

1 2
O    1.24614954   0.07405998   0.73423976
N    2.37498903  -0.00017000  -0.08877996
C    2.96170902   1.15203953  -0.17011994
C    2.53631902   2.42748904   0.50676978
C    3.28741884   3.45968866  -0.32310987
C    4.59140825   2.76873899  -0.70548975
C    4.19826841   1.32834947  -1.01096964
H    0.87693971  -0.82612973   0.66228974
H    2.88892889   2.41176915   1.54339945
H    1.45669937   2.58343911   0.47666982
H    2.71468902   3.70037866  -1.22723961
H    3.45613861   4.38924837   0.22807992
H    5.07792807   3.24928880  -1.55947936
H    5.29000759   2.79611897   0.13926995
H    3.93610859   1.19447958  -2.06467915
H    4.97746849   0.61708981  -0.72630972

