%chk=mol_1864.chk
# wB97XD/Def2SVP opt pop=full gfinput

C 5 H 8 N 2

1 2
C    2.444701  -0.797294  -0.870710
N    5.145554  -0.393535  -0.491310
N    5.883568   2.056117  -0.405875
C    8.302776   2.338668  -0.147512
C    9.465865   4.928538  -0.022299
C   10.816358   5.281445   2.377994
C   11.920317   5.584160   4.337451
H    2.049049  -2.823270  -0.985114
H    1.812833   0.075627  -2.636206
H    1.351494  -0.006255   0.696969
H    5.693991  -1.357995   1.092507
H    9.612508   0.712767  -0.044371
H    7.995261   6.365750  -0.248121
H   10.785366   5.098916  -1.606910
H   12.891995   5.864047   6.080742

