%chk=mol_0232.chk
# wB97XD/Def2SVP opt pop=full gfinput

C 5 H 9 N 1

1 2
C    0.798901   2.506930   0.496790
C   -1.998744   1.998499  -0.101081
C   -2.646127  -0.763790  -0.008636
C   -0.825225  -2.525146   0.086814
C    1.940484  -1.892221   0.046695
N    2.474086   0.700068  -0.768155
H    1.279855   4.424454  -0.118561
H    1.114372   2.440355   2.545574
H   -2.461028   2.715895  -1.989107
H   -3.176384   3.025017   1.258104
H   -4.624859  -1.304006  -0.027609
H   -1.330008  -4.512383   0.183266
H    2.728897  -2.221940   1.934173
H    2.902752  -3.183319  -1.253361
H    4.305118   1.118302  -0.353209

