%chk=mol_0262.chk
# wB97XD/Def2SVP opt freq pop=full gfinput

C 5 H 11 N 1

1 2
C    0.98126966  -0.05156998   0.08969996
C    2.48853898   0.06752997  -0.00612000
C    3.16697884   1.11815953   0.89833969
C    4.18948841   0.00875000   1.21853960
C    5.46448803  -0.01838999   0.38824984
N    3.18560886  -0.98358965   0.76902974
H    0.62554973  -0.92915964  -0.45958981
H    0.50123984   0.83022970  -0.34694988
H    0.64060980  -0.13859995   1.12685955
H    2.82537889   0.12395996  -1.05037963
H    2.57197905   1.43033946   1.76454937
H    3.55224848   2.00770926   0.39244986
H    4.42423868  -0.06952997   2.28655910
H    5.26590824   0.03815999  -0.68753976
H    6.03142786  -0.93597966   0.58011979
H    6.10614777   0.82905972   0.65230972
H    3.55029869  -1.75519931   0.21336992

