%chk=mol_2040.chk
# wB97XD/Def2SVP opt pop=full gfinput

C 5 H 10 N 2

1 2
N    3.246909  -0.402474  -2.351689
C    5.013292  -0.214200  -0.254282
C    5.851991   2.463466   0.024302
C    8.272503   3.226235  -0.080956
C    9.142079   5.831638   0.198062
C    9.506967   6.897633   2.811837
N   11.664883   6.191234   1.253172
H    2.685943  -2.234545  -2.530684
H    4.180188   0.024661  -3.981785
H    6.611264  -1.492203  -0.570773
H    4.071018  -0.812034   1.489123
H    4.372808   3.849183   0.358500
H    9.737003   1.820222  -0.410656
H    8.602373   7.114913  -1.308635
H    9.141229   5.701946   4.432069
H    9.193254   8.898116   3.104196
H   12.500539   7.749559   0.482636

