%chk=mol_5899.chk
# wB97XD/Def2SVP opt freq pop=full gfinput

C 4 H 8 N 2 O 1

1 2
N    1.00395966   1.10078955  -1.27710962
N    2.32181907   0.79437971  -1.25474954
C    2.93946886   1.29873955  -0.23712991
C    4.38276863   1.02745962  -0.09808996
C    5.34290791   1.37669945  -1.20949960
C    5.33067799   2.18989921   0.04773998
O    6.43455791   1.97406924   0.93764967
H    0.61735976   0.83723968  -2.18766904
H    0.49003983   0.52352983  -0.60573983
H    2.45194912   1.91669929   0.53802979
H    4.60883808   0.13435994   0.47510985
H    4.93670845   1.82061923  -2.11159921
H    6.17053747   0.69953972  -1.38345957
H    4.92097855   3.19378877  -0.01172000
H    7.21996737   2.46982908   0.64664978

