%chk=mol_1391.chk
# wB97XD/Def2SVP opt freq pop=full gfinput

C 6 H 11 N 1

1 2
C    1.01642966  -0.08781997   0.26547989
C    2.48471904  -0.05257998  -0.17939992
C    2.68934917  -0.81669974  -1.50284946
N    2.31367898  -2.22420931  -1.38772941
C    2.93672895   1.41426945  -0.31316987
C    4.39221811   1.53887939  -0.49394980
C    5.57956791   1.64702940  -0.64326978
H    0.88032967   0.46939984   1.19868958
H    0.67736977  -1.11253965   0.44764981
H    0.36285987   0.35771987  -0.49234983
H    3.08506894  -0.53646982   0.60363978
H    3.73819852  -0.76906973  -1.81453931
H    2.09204912  -0.35742989  -2.29875922
H    2.89182878  -2.67235899  -0.67750973
H    2.52268910  -2.70015907  -2.26464915
H    2.65498900   1.96892917   0.59063977
H    2.41729927   1.89475918  -1.15118957
H    6.63197756   1.74538934  -0.77568972

