%chk=mol_0621.chk
# wB97XD/Def2SVP opt freq pop=full gfinput

C 5 H 6 O 1

1 2
C    0.93177968   0.02437999  -0.00788000
C    2.41248894  -0.00949000  -0.00089000
C    3.27744865   1.06608963   0.00282000
O    4.56897831   0.64903980   0.00888000
C    4.54417801  -0.70697969   0.00901000
C    3.24691868  -1.16279960   0.00308000
H    0.55711979   1.05228961   0.00219000
H    0.53427976  -0.49069980   0.87177968
H    0.54339981  -0.47025985  -0.90317965
H    3.13627863   2.13838911   0.00191000
H    5.50984812  -1.19261956   0.01354000
H    2.93844891  -2.19903922   0.00179000

