%chk=mol_4698.chk
# wB97XD/Def2SVP opt pop=full gfinput

C 4 H 8 N 2 O 1

1 2
C    1.900309   0.002702  -0.061737
C    4.746614  -0.159153   0.138063
N    5.721486  -2.578966   0.204279
C    6.087715   1.996042   0.237180
C    8.859716   2.104664   0.529331
N   10.065135   4.233346   0.478800
O   12.649543   3.764448   0.801187
H    1.214414   1.956282  -0.062493
H    1.015558  -0.971565   1.536404
H    1.253569  -0.891138  -1.813551
H    4.558756  -3.914549  -0.548417
H    7.522981  -2.755164  -0.437056
H    5.172880   3.829700   0.148230
H    9.860893   0.296933   0.802283
H   13.363256   5.463614   0.768060

