%chk=mol_2070.chk
# wB97XD/Def2SVP opt freq pop=full gfinput

C 5 H 2 N 2

1 2
N    0.99999964   0.00000000   0.00000000
C    2.15100908   0.00000000   0.00000000
C    3.59500861   0.00000000   0.00000000
C    4.07702827   1.36116946   0.00000000
C    4.47430801   2.48306894   0.00000000
C    4.99069786   3.93048859   0.00000000
N    5.38941765   5.01868820   0.00000000
H    3.97197843  -0.53468984  -0.87862968
H    3.97197843  -0.53468984   0.87862968

