%chk=mol_4131.chk
# wB97XD/Def2SVP opt pop=full gfinput

C 4 H 9 N 1 O 2

1 2
C    1.753874   0.180696  -0.098908
C    4.588916  -0.049813   0.109925
N    5.588676  -0.000472   2.744071
C    6.014299  -1.565695  -1.868070
O    4.536401  -2.701685  -3.847275
C    6.162605   1.270898  -1.895509
O    8.485078   2.361194  -0.985851
H    1.118812   0.378002  -2.060784
H    1.087500   1.843844   0.940441
H    0.840153  -1.496210   0.700881
H    7.249518  -0.977536   2.834514
H    4.389361  -0.974570   3.901472
H    7.700615  -2.576113  -1.286015
H    5.376176  -2.504889  -5.470360
H    5.184483   2.265158  -3.397557
H    8.266229   2.774968   0.800998

