%chk=mol_2131.chk
# wB97XD/Def2SVP opt freq pop=full gfinput

C 7 H 10

1 2
C    0.99999964   0.00000000   0.00000000
C    2.44399905   0.00000000   0.00000000
C    3.63415861   0.00000000   0.00000000
C    5.07815790   0.00000000   0.00000000
C    5.46665764   1.44468951   0.08572996
C    5.64468765   2.12593937   1.42111945
C    6.84578753   1.81954932   0.57146978
H    0.60608977   1.02090967   0.01191000
H    0.60594976  -0.52065980   0.87816972
H    0.60590976  -0.50007981  -0.89002967
H    5.47432756  -0.43516985  -0.92307967
H    5.47518826  -0.57720977   0.84180969
H    5.07124805   2.03126907  -0.73870975
H    5.49656773   1.54400945   2.32393909
H    5.32846832   3.15975904   1.50546944
H    7.34674740   2.64847898   0.08328997
H    7.51442719   1.03348958   0.90389967

