%chk=mol_2669.chk
# wB97XD/Def2SVP opt freq pop=full gfinput

C 5 H 6 O 2

1 2
C    0.86924964   0.22670990   0.07676997
C    2.13668919   0.22030991   0.50875980
C    3.10597873   1.23501956   0.03214999
O    2.65504885   2.61554909   0.03963998
C    3.60923862   3.05111885   1.03621960
C    4.13932848   1.62500942   1.09437966
O    5.00874805   1.05472958   1.72155929
H    0.16099994  -0.52177978   0.41929984
H    0.50552982   0.97892964  -0.61846977
H    2.48095918  -0.54326975   1.20133960
H    3.55797887   0.97243965  -0.93023962
H    4.31172848   3.78708839   0.64234978
H    3.12383890   3.39898872   1.94926918

