%chk=mol_4013.chk
# wB97XD/Def2SVP opt freq pop=full gfinput

C 5 H 7 N 1 O 1

1 2
C    0.93057966   0.03177999  -0.00891000
C    2.41350913  -0.00663000  -0.00140000
C    3.26867867   1.08209968   0.00497000
N    4.56269836   0.62333977   0.01069000
C    4.55995846  -0.74571973   0.00802000
C    3.25143862  -1.14746964   0.00053000
O    2.89868903  -2.43911910  -0.00393000
H    0.55772978   1.06079960  -0.00013000
H    0.53118980  -0.48117983   0.87165970
H    0.54091984  -0.46275982  -0.90424967
H    3.06659865   2.14500928   0.00593000
H    5.39010811   1.20509958   0.01599999
H    5.48158789  -1.31031954   0.01158000
H    1.93081927  -2.51597905  -0.00924000

