%chk=mol_3567.chk
# wB97XD/Def2SVP opt pop=full gfinput

C 6 H 10 O 1

1 2
O    2.055096   0.090745   0.656548
C    4.324374   0.033562   0.153956
C    5.760471  -2.433098   0.014551
C    7.554482  -2.449161  -2.234129
C    9.244484  -0.111078  -2.271111
C    7.661951   2.301214  -2.299891
C    5.869281   2.429073  -0.053593
H    4.412624  -3.994427  -0.152236
H    6.801389  -2.664892   1.788229
H    8.724393  -4.156774  -2.178268
H    6.457308  -2.521632  -3.992084
H   10.486317  -0.116086  -0.611742
H   10.462733  -0.161761  -3.944728
H    8.907753   3.955065  -2.289932
H    6.569160   2.374706  -4.060549
H    6.918042   2.666082   1.714492
H    4.590919   4.042464  -0.268266

