%chk=mol_1166.chk
# wB97XD/Def2SVP opt freq pop=full gfinput

C 6 H 12

1 2
C    0.91394961  -0.02170999   0.12154996
C    2.43161893  -0.00576000  -0.02734999
C    2.84948897   0.02163999  -1.49815941
C    3.14466882   1.05950952   0.85854965
C    4.19839811  -0.00734000   1.21068954
C    3.16406870  -1.08329964   0.82474971
H    0.61175978  -0.04150998   1.17443955
H    0.48373982  -0.90418965  -0.36346987
H    0.46731982   0.86817962  -0.33467987
H    3.93801832   0.03443999  -1.61504936
H    2.45276904   0.91172969  -1.99802923
H    2.47046924  -0.85988969  -2.02535915
H    2.56292915   1.39144945   1.72733939
H    3.52745867   1.94347918   0.34082985
H    5.08104849   0.01069000   0.56142980
H    4.52817822  -0.02091999   2.25250912
H    3.56469870  -1.94336939   0.28026989
H    2.58997893  -1.45325947   1.68276942

