%chk=mol_5838.chk
# wB97XD/Def2SVP opt freq pop=full gfinput

C 6 H 11 N 1

1 2
C    0.99671966   0.01834999   0.01661999
C    2.48431921   0.00470000  -0.04068999
C    3.26780868  -1.08049965  -0.11487996
C    4.71578836  -0.72175968  -0.06736997
C    4.69584846   0.78090966  -0.34384990
C    3.29755878   1.25927949   0.07430997
N    2.82075906   2.33968925  -0.77232975
H    0.58671975  -0.99668962   0.00883000
H    0.57973975   0.55165976  -0.84303969
H    0.65468973   0.51012981   0.93263960
H    2.90991902  -2.09962916  -0.15708995
H    5.13230801  -0.94699967   0.92030966
H    5.29415798  -1.25496948  -0.82791966
H    4.87157822   0.94877970  -1.41552937
H    5.48943806   1.30994952   0.19462994
H    3.30260873   1.59162939   1.11939967
H    2.80521894   2.01826930  -1.73949933
H    3.49144864   3.10537887  -0.74549973

