%chk=mol_0537.chk
# wB97XD/Def2SVP opt pop=full gfinput

C 6 H 10

1 2
C    1.841122   0.027325  -0.082071
C    4.719459  -0.006293  -0.009486
C    5.775513  -2.409231   1.228114
C    6.403942  -1.701056   3.959846
C    6.666614   1.103770   3.830437
C    5.745731   2.032703   1.669630
H    1.127354  -1.513878  -1.265266
H    1.144002   1.810055  -0.871901
H    1.019262  -0.192506   1.806843
H    5.465201   0.187045  -1.930601
H    7.520845  -2.970914   0.254792
H    4.482941  -4.022490   1.124689
H    8.150464  -2.613416   4.584173
H    4.873320  -2.219408   5.252343
H    7.452967   2.234223   5.340517
H    5.694160   4.019334   1.190017

