%chk=mol_1791.chk
# wB97XD/Def2SVP opt freq pop=full gfinput

C 5 H 14 N 2

1 2
C    1.01349962  -0.07062997  -0.04490998
N    2.46801901  -0.01016000  -0.01297000
C    2.94067883   1.37535942  -0.00754000
C    4.47142839   1.40671957  -0.00579000
C    4.98611832   2.84817910   0.01152000
N    6.44962740   2.85647893   0.00460000
C    6.96890736   4.21692848   0.01701999
H    0.69239974  -1.11659956  -0.03355999
H    0.61237979   0.39514983  -0.95059961
H    0.57740974   0.41706985   0.83265966
H    2.84646893  -0.49987981  -0.82322967
H    2.56495905   1.89300931   0.88332969
H    2.56598926   1.90571928  -0.89172965
H    4.85222816   0.88781965  -0.89486969
H    4.85140800   0.86814970   0.87177968
H    4.61448812   3.35534883   0.91003966
H    4.60186815   3.38476872  -0.86457968
H    6.79238749   2.36990905  -0.82320964
H    6.65690756   4.75099850   0.92042965
H    6.64231777   4.78011799  -0.86341965
H    8.06289673   4.18967867   0.01251000

