%chk=mol_6445.chk
# wB97XD/Def2SVP opt pop=full gfinput

C 4 H 6 N 2 S 1

1 2
C    1.606494   0.238238  -0.017064
C    4.409431   0.105012  -0.001833
C    6.063961   2.032438   0.008882
N    8.548366   1.304081   0.022715
C    8.966940  -1.233046   0.024548
N   11.064327  -2.438880   0.037511
S    6.018627  -2.822098   0.005858
H    0.946791   2.199811  -0.012737
H    0.820141  -0.694720   1.653832
H    0.839227  -0.681171  -1.704268
H    5.619233   4.027649   0.007729
H    9.993495   2.544403   0.033127
H   10.627726  -4.327983   0.034431

