%chk=mol_6494.chk
# wB97XD/Def2SVP opt freq pop=full gfinput

C 4 H 5 N 1 O 1 S 1

1 2
C    0.88521963   0.01024000  -0.00344000
C    2.36746907   0.05814998  -0.00452000
C    3.23561883   1.12507963  -0.00175000
O    2.80156898   2.39996910   0.00299000
C    4.58734846   0.68390977  -0.00445000
N    4.78444815  -0.63213974  -0.00930000
S    3.30001879  -1.38031948  -0.01062000
H    0.45437986   1.01679957   0.00876000
H    0.51418978  -0.52090985   0.87948972
H    0.51265979  -0.50032979  -0.89777970
H    3.55396867   3.01662874   0.00431000
H    5.46851826   1.31087947  -0.00307000

