%chk=mol_6918.chk
# wB97XD/Def2SVP opt freq pop=full gfinput

C 6 H 13 N 1

1 2
C    1.96260917  -0.32163987  -1.44406950
C    2.38433909   0.10011996  -0.04419998
C    3.17395878   1.40973938  -0.03423999
C    2.38696909   2.62118912  -0.52265978
C    3.09457874   3.76944852   0.16575994
N    3.33843875   3.24501896   1.50629938
C    3.64303875   1.81754923   1.36615944
H    1.45068955  -1.28848946  -1.40761948
H    2.83174896  -0.42312986  -2.10155916
H    1.27542961   0.40394986  -1.88962936
H    3.00130868  -0.69496977   0.39174986
H    1.49175942   0.19045994   0.58673978
H    4.06127834   1.29577959  -0.67282975
H    1.33882952   2.56834888  -0.20195992
H    2.40891910   2.71902919  -1.61249936
H    4.04275846   3.99994850  -0.33346987
H    2.48252916   4.67465830   0.19303992
H    4.10401821   3.74023867   1.96027935
H    4.71989822   1.64254940   1.46809947
H    3.13564897   1.25993955   2.15965915

