%chk=mol_1650.chk
# wB97XD/Def2SVP opt pop=full gfinput

C 6 H 11 N 1

1 2
C    1.761300   0.049681  -0.754246
N    4.313035  -0.004630   0.290621
C    5.778348   2.254670  -0.405875
C    6.637701   2.359153  -3.185511
C    7.581165  -0.143695  -4.116372
C    7.136569  -2.264667  -2.809418
C    5.666249  -2.337950  -0.377624
H    0.763960   1.751682  -0.123437
H    0.661064  -1.553601  -0.039779
H    1.720860  -0.004630  -2.820870
H    7.457842   2.323475   0.811297
H    4.709198   3.972450   0.046544
H    8.145778   3.767169  -3.365829
H    5.076107   2.969837  -4.401361
H    8.655097  -0.195908  -5.865294
H    7.885355  -4.049966  -3.490475
H    4.352530  -3.941534  -0.437302
H    7.000793  -2.767825   1.149369

