%chk=mol_0972.chk
# wB97XD/Def2SVP opt pop=full gfinput

C 4 H 7 N 1 O 1

1 2
C    2.051373  -0.005575   0.249085
C    4.881559   0.161723  -0.085416
C    6.250099  -2.303501  -0.122454
C    8.076935  -2.781318   1.556567
N    5.839764   2.398214  -0.388131
O    8.448096   2.315330  -0.817420
H    1.409679   1.487592   1.526596
H    1.502200  -1.834206   1.040389
H    1.138106   0.239050  -1.589090
H    5.626698  -3.693186  -1.488915
H    8.658064  -1.376193   2.934896
H    9.053225  -4.583965   1.561575
H    8.871716   4.097493  -1.008641

