%chk=mol_0595.chk
# wB97XD/Def2SVP opt pop=full gfinput

C 4 H 6 O 2

1 2
C    0.584814   2.551489   0.310576
C    2.548145   0.530030  -0.292473
O    1.829841  -1.880259   0.732137
C   -0.696704  -2.341144   0.362128
C   -2.380771  -0.602426  -0.367797
O   -1.842105   1.910362  -0.726108
H    1.153319   4.372505  -0.488192
H    0.367495   2.783982   2.359172
H    4.382502   1.040067   0.515404
H    2.782036   0.313619  -2.341125
H   -1.161709  -4.296160   0.732363
H   -4.347466  -1.006582  -0.747368

