%chk=mol_5348.chk
# wB97XD/Def2SVP opt freq pop=full gfinput

C 5 H 8 N 2

1 2
C    1.02043962  -0.01678999   0.62586981
C    2.40167904  -0.01208000   0.06938998
C    2.70352888   0.77208972  -1.17260957
N    4.08665848   1.18230963  -1.45655954
C    4.73492813  -0.00893000  -1.67624927
N    4.06685829  -1.12060952  -1.56157935
C    2.70512891  -0.75772971  -1.20335960
H    0.85367966   0.88221967   1.22795951
H    0.87652969  -0.88995969   1.27027953
H    0.25853992  -0.04549998  -0.16072993
H    3.14593863  -0.03706999   0.85670966
H    1.92619932   1.29349947  -1.71386933
H    4.29769850   1.93498933  -2.10060906
H    5.78871775   0.06327998  -1.99044931
H    1.90663922  -1.33417952  -1.64977944

