%chk=mol_0117.chk
# wB97XD/Def2SVP opt freq pop=full gfinput

C 3 H 5 N 1 O 1

1 2
O    2.30717897   0.02111999  -1.15653956
C    2.24742937   0.36714986   0.01635999
N    2.87300897   1.46106946   0.59804976
C    4.18874836   1.84950924   0.17572995
C    3.00624895   2.68945885  -0.13253994
H    1.65912938  -0.18570992   0.76730973
H    4.62532854   1.24692953  -0.61048973
H    4.83835793   2.12889910   0.99277961
H    2.81096888   3.56878877   0.46434984
H    2.60372901   2.68274879  -1.13741958

