%chk=mol_4199.chk
# wB97XD/Def2SVP opt freq pop=full gfinput

C 4 H 7 N 1 O 2

1 2
C    0.96579963  -0.01292999   0.26288989
C    2.37947893   0.03115999  -0.28887990
O    2.50676894   1.20148957  -1.09328949
C    3.78429842   1.22534955  -1.69094932
C    4.43232822  -0.12240995  -1.91365933
N    3.90379858  -1.26120961  -1.59001935
O    2.59005904  -1.15114963  -1.06871963
H    0.75992972   0.86623967   0.88198966
H    0.80322969  -0.91884965   0.85523963
H    0.23312990  -0.01746999  -0.55246979
H    3.09466887   0.06071998   0.54432982
H    4.45746851   1.81687927  -1.06116962
H    3.71134853   1.73634934  -2.65657902
H    5.43983793  -0.11774996  -2.36101913

