%chk=mol_3337.chk
# wB97XD/Def2SVP opt freq pop=full gfinput

C 5 H 8 O 2

1 2
C    1.00664961   0.07974997  -0.02013999
O    2.42322922   0.04498998  -0.14252995
C    3.04615879   1.25984955  -0.13833995
C    4.35579824   1.43771946  -0.26203990
O    4.79925823   2.74070883  -0.20139994
C    3.57962847   3.51429868  -0.18180993
C    2.39528918   2.57433915   0.05417998
H    0.64211977  -0.95165968  -0.02603999
H    0.55428976   0.60307980  -0.86868966
H    0.70431978   0.54001981   0.92607963
H    5.12393808   0.69233978  -0.37687987
H    3.48849869   4.02779818  -1.14649951
H    3.65329862   4.27508879   0.60259980
H    1.59078944   2.77850890  -0.65763974
H    2.00764918   2.68227911   1.07228959

