%chk=mol_6848.chk
# wB97XD/Def2SVP opt freq pop=full gfinput

C 6 H 11 N 1

1 2
C    0.99889958   0.12173995   0.21257992
C    2.47503901  -0.11463996  -0.08023997
N    2.74225903  -1.48588943  -0.54416978
C    2.76261902  -1.50398946  -2.01003933
C    3.24593878  -0.13753995  -2.36350918
C    2.30923915   1.03266954  -2.48509908
C    3.02057886   0.74459970  -1.18343949
H    0.82054973   1.17095959   0.46800983
H    0.66834974  -0.49513984   1.05484962
H    0.36193985  -0.12265995  -0.64395976
H    3.04815888   0.05779998   0.83832967
H    2.04791927  -2.13764930  -0.18905993
H    3.43632865  -2.28436899  -2.37405920
H    1.75954926  -1.68387926  -2.41252899
H    4.21097851  -0.11767996  -2.84861875
H    2.64442921   1.88829935  -3.06107879
H    1.24740958   0.84071970  -2.56845903
H    3.82438850   1.39519942  -0.86634970

