%chk=mol_2973.chk
# wB97XD/Def2SVP opt freq pop=full gfinput

C 5 H 8 O 2

1 2
C    0.65149975   0.33241987   0.05729998
C    2.12559915   0.09691996   0.09771997
C    3.04258895   1.03930962  -0.16810992
C    4.49863863   0.72652972  -0.10596996
O    4.91827774  -0.38525984   0.21529992
C    5.45701790   1.85805929  -0.46060982
O    6.81526756   1.44925940  -0.37361985
H    0.19090992  -0.31693989  -0.69297975
H    0.40571985   1.36967945  -0.18992993
H    0.21086992   0.10033996   1.03136957
H    2.44438910  -0.91095966   0.36272988
H    2.76422882   2.05126929  -0.43730983
H    5.30631781   2.68998909   0.23288991
H    5.26509809   2.18636918  -1.48587942
H    6.79980755   0.51592982  -0.07534997

