%chk=mol_5328.chk
# wB97XD/Def2SVP opt freq pop=full gfinput

C 5 H 11 N 1 O 1

1 2
C    1.76038933   0.24362990  -1.85453928
O    3.03200889   0.37045985  -1.23031950
C    3.22877884   1.44193947  -0.37655988
C    2.27858925   2.30526924   0.02431999
C    4.67128801   1.58927941   0.08652996
C    5.09722805   0.39839983   0.94776964
N    5.56161785   1.72399938  -1.07216966
H    1.80119932  -0.61801976  -2.52738905
H    1.52894938   1.12909961  -2.45572901
H    0.97664964   0.05473998  -1.11408961
H    1.24368954   2.23611927  -0.28545991
H    2.52372885   3.12973881   0.68709975
H    4.78218794   2.49793887   0.69028974
H    5.05470800  -0.54590976   0.39279985
H    4.44812822   0.30138987   1.82530940
H    6.12378740   0.52645981   1.30973959
H    5.35383797   0.94924963  -1.70430934
H    6.52572727   1.59358943  -0.77599967

