%chk=mol_6922.chk
# wB97XD/Def2SVP opt freq pop=full gfinput

C 6 H 9 N 1

1 2
C    0.99999964   0.00000000   0.00000000
C    2.19015908   0.00000000   0.00000000
C    3.63415861   0.00000000   0.00000000
C    4.23118830   1.12503958   0.83158970
C    5.61996794   0.59928977   1.13420963
N    5.40568829  -0.81788969   1.42224956
C    4.25265837  -1.25649953   0.61996979
H   -0.06579997   0.00091000   0.00343000
H    4.00358868   0.09796996  -1.02991962
H    3.66865849   1.28230953   1.76155937
H    4.25643826   2.07506919   0.28825989
H    6.27278757   0.71257979   0.26107991
H    6.07985783   1.11462963   1.98177922
H    6.23591757  -1.36495948   1.20045960
H    4.57211828  -1.95219934  -0.16553994
H    3.55427861  -1.79340935   1.27176952

