%chk=mol_7046.chk
# wB97XD/Def2SVP opt freq pop=full gfinput

C 6 H 9 N 1

1 2
C    3.96516848  -0.01930999  -2.91848874
C    3.79607868  -0.00979000  -1.73040926
C    3.58344865  -0.01170000  -0.27375990
C    4.25497818   1.17638958   0.41558984
C    5.75519753   1.10890961   0.34810987
C    6.52259779   1.99273920  -0.60175979
N    6.52332735   2.25542927   0.83411974
H    4.11474848  -0.03129999  -3.97453856
H    3.95755839  -0.95122963   0.14903995
H    2.50672913   0.02353999  -0.06994997
H    3.96032858   1.17262959   1.47210944
H    3.88629866   2.11727929  -0.01351000
H    6.15443754   0.13450994   0.60333973
H    5.97952795   2.70450902  -1.21134949
H    7.44312716   1.61812937  -1.03085959
H    7.40208721   1.95171928   1.25819945

