%chk=mol_3105.chk
# wB97XD/Def2SVP opt freq pop=full gfinput

C 5 H 6 O 2

1 2
C    1.10808969  -0.05855998   0.03878999
C    2.61175895  -0.08126997   0.04573998
C    3.20563889  -1.44600940   0.14147994
O    2.50111914  -2.44915891   0.21119992
C    3.32814860   1.05343962  -0.03041999
C    4.80232811   1.20564950  -0.03353998
O    5.59519815   0.28133988   0.05713998
H    0.71238977   0.96032965  -0.03015999
H    0.71315974  -0.50263983   0.95859963
H    0.71972978  -0.62055981  -0.81707972
H    4.29881811  -1.52943945   0.14576994
H    2.80997896   2.00646925  -0.10013996
H    5.14688826   2.25062919  -0.12535995

