%chk=mol_1423.chk
# wB97XD/Def2SVP opt freq pop=full gfinput

C 5 H 10 N 2

1 2
C    2.88040900  -0.72926968  -1.37290955
C    2.47812915  -0.00603000  -0.09056997
C    3.02738905   1.43281937   0.00000000
N    2.43327904   2.04776931   1.21270955
C    2.76348901   3.46208858   1.34400952
C    4.47138834   1.43281937   0.00000000
N    5.62239790   1.43281937   0.00000000
H    2.39618921  -1.71076941  -1.41645956
H    3.96055841  -0.89193964  -1.42078948
H    2.57488918  -0.16098994  -2.25656915
H    2.81446886  -0.60269976   0.76843971
H    1.38091958   0.01925999  -0.04824998
H    2.65965915   1.98402929  -0.87487966
H    2.76077914   1.54784942   2.03954911
H    2.47190905   4.02625847   0.45126984
H    3.82925868   3.61782885   1.53534949
H    2.21249938   3.88241839   2.19157934

