%chk=mol_2543.chk
# wB97XD/Def2SVP opt freq pop=full gfinput

C 7 H 14

1 2
C    0.86101967   0.97655964  -1.00831962
C    2.34843922   0.83163971  -1.05388963
C    3.17243886   1.29096949  -0.09730997
C    4.69234800   1.19254959  -0.05372998
C    5.08898830   0.42675984   1.22107959
C    5.31361818   0.47638983  -1.26706958
C    5.26562786   2.61907911   0.01751999
H    0.51535982   1.53956938  -1.88071930
H    0.52136981   1.49914944  -0.10847996
H    0.39038986  -0.01122000  -1.02726960
H    2.74099898   0.31962988  -1.92790926
H    2.72373915   1.79761934   0.75870973
H    4.70659828   0.91983968   2.12277913
H    6.17863798   0.36046988   1.32025945
H    4.69360828  -0.59585977   1.20937955
H    5.07981777   0.99562967  -2.20364928
H    4.95506811  -0.55597979  -1.35180950
H    6.40594721   0.43515983  -1.18216956
H    4.99935818   3.19908881  -0.87397969
H    6.35929728   2.60313916   0.08899996
H    4.88730812   3.16219878   0.89170969

