%chk=mol_0382.chk
# wB97XD/Def2SVP opt freq pop=full gfinput

C 6 H 8

1 2
C    1.46968949  -0.26018989  -0.00065000
C    0.43926984  -1.35523951   0.00356000
C   -0.88325965  -1.12171960   0.01976999
C   -1.47621953   0.25996989   0.03544999
C   -0.44594982   1.35499942   0.01931999
C    0.87657970   1.12148952   0.00311000
H    2.11126924  -0.37331986   0.88043964
H    2.10244918  -0.37209985  -0.88820964
H    0.80533969  -2.37797904  -0.00712000
H   -1.57754946  -1.95723927   0.02208999
H   -2.12997913   0.37522987  -0.83632970
H   -2.09661913   0.36966988   0.93201965
H   -0.81207973   2.37780905   0.02143999
H    1.57074940   1.95707929  -0.00777000

