%chk=mol_5423.chk
# wB97XD/Def2SVP opt pop=full gfinput

C 4 H 9 N 1 O 2

1 2
C    3.054062   4.600293  -2.419530
O    5.627548   4.546794  -1.613221
C    6.470366   2.215156  -0.920637
O    5.154398   0.310501  -1.000875
N    8.965560   2.242236  -0.132432
C   10.216955  -0.133282   0.411790
C   10.552117   4.477423  -0.280624
H    2.619709   6.523335  -3.041344
H    1.798849   4.121927  -0.846767
H    2.755164   3.319096  -4.016121
H    8.867843  -1.677699   0.655074
H   11.318817   0.066046   2.149582
H   11.481182  -0.590124  -1.159593
H    9.444152   6.219920  -0.289393
H   11.664864   4.378023  -2.020458
H   11.821560   4.518600   1.350436

