%chk=mol_5349.chk
# wB97XD/Def2SVP opt freq pop=full gfinput

C 5 H 9 N 1 O 1

1 2
C    1.00269961  -0.06225998  -0.07611997
O    2.42216921  -0.00377000  -0.10591996
C    2.89400887   1.33854949   0.00000000
C    4.33800840   1.33854949   0.00000000
C    5.52816820   1.33854949   0.00000000
C    6.97216749   1.33854949   0.00000000
N    7.47090721   2.69892883  -0.13914995
H    0.69969976  -1.10919952  -0.16166994
H    0.57859981   0.49373981  -0.91778970
H    0.62214977   0.33485985   0.86861962
H    2.51564908   1.78448927   0.92682964
H    2.51304913   1.92240930  -0.84540969
H    7.35551739   0.72614974  -0.82305968
H    7.35575724   0.91048968   0.93159962
H    7.12419701   3.08551884  -1.01519966
H    8.48517704   2.67249894  -0.21930991

