%chk=mol_3471.chk
# wB97XD/Def2SVP opt freq pop=full gfinput

C 5 H 8 O 2

1 2
C    1.28959942   0.44972983  -0.46565983
O    2.68143892   0.37897986  -0.15453993
C    3.34528875   1.54491949  -0.35649985
O    2.86883879   2.59402895  -0.75665969
C    4.76542807   1.32478940  -0.00998000
C    5.66230774   2.31659913  -0.12712996
C    7.11199760   2.16898942   0.19648993
H    0.84294969  -0.52276981  -0.24190991
H    1.14719963   0.65982974  -1.53044939
H    0.79440969   1.20752954   0.14913996
H    5.04249811   0.33601990   0.33499986
H    5.34212780   3.29663873  -0.47851980
H    7.35896730   1.15845954   0.53704983
H    7.39187717   2.87337875   0.98547959
H    7.71540737   2.38713908  -0.68995970

