%chk=mol_4508.chk
# wB97XD/Def2SVP opt freq pop=full gfinput

C 4 H 9 N 1 O 2

1 2
C    2.59119916   0.12867996   1.78022933
C    3.65049863   0.60411978   0.79591972
C    3.09763885   0.88268965  -0.60517973
N    2.08122921   1.97874916  -0.60593975
C    4.23362875   1.28017962  -1.56801939
O    3.86150861   2.32712913  -2.35235929
O    5.31941795   0.72996974  -1.65392935
H    3.05661869  -0.12802994   2.73723912
H    2.07780933  -0.76159972   1.40368938
H    1.84409928   0.90449965   1.97267926
H    4.43053818  -0.16489993   0.73016971
H    4.14176846   1.50037944   1.19590950
H    2.62932920  -0.01397999  -1.02683961
H    2.37654924   2.68712902   0.07545997
H    1.21606946   1.60014939  -0.20907992
H    2.94229889   2.55792904  -2.06348920

