%chk=mol_5072.chk
# wB97XD/Def2SVP opt freq pop=full gfinput

C 5 H 9 N 1 O 1

1 2
C    0.95795959   0.54539979  -1.13789952
N    2.25662923   0.59285980  -0.50466979
C    3.05737877   1.70760942  -0.28889990
C    2.49056911   3.04019880  -0.72637975
C    4.26530838   1.55991948   0.28867990
C    5.24874830   2.62518907   0.57348979
O    6.30989742   2.37247920   1.13606954
H    0.60811979  -0.49043980  -1.18680954
H    1.00572968   0.93415964  -2.15961933
H    0.22412992   1.12118959  -0.56590980
H    2.64543891  -0.30631989  -0.22967991
H    1.49854946   3.19383883  -0.28781989
H    2.39584899   3.06848884  -1.81706929
H    3.09245896   3.89959836  -0.42784983
H    4.61276817   0.57679981   0.59196979
H    4.99923801   3.64594865   0.25647989

