%chk=mol_0579.chk
# wB97XD/Def2SVP opt pop=full gfinput

C 4 H 8 N 2

1 2
N    1.565808   1.452897   0.690771
N    4.033072   1.237204   1.326550
C    5.531021   2.215855  -0.346047
C    8.356558   2.144707   0.011849
C    9.295525   4.797958   0.358311
C   10.916306   5.949368  -1.207611
H    0.536833   0.190503   1.736091
H    0.884732   3.177953   1.244649
H    4.824358   3.113078  -2.096500
H    9.189492   1.248410  -1.657252
H    8.833072   1.010285   1.675280
H    8.611670   5.810076   2.013352
H   11.670098   5.011988  -2.869738
H   11.539877   7.869859  -0.843782

