%chk=mol_3153.chk
# wB97XD/Def2SVP opt pop=full gfinput

C 7 H 6

1 2
C    1.889726   0.000000   0.000000
C    4.618491   0.000000   0.000000
C    6.867567   0.000000   0.000000
C    9.524522   0.000000   0.000000
C   10.766109   2.150489   0.000000
C   13.423065   2.150489   0.000000
C   15.672141   2.150489   0.000000
H    1.145174   1.929184   0.022091
H    1.145042  -0.983659   1.659652
H    1.145042  -0.945392  -1.681743
H   10.492270  -1.809469  -0.000000
H    9.796151   3.958957   0.000000
H   17.683264   2.150962  -0.000000

