%chk=mol_3773.chk
# wB97XD/Def2SVP opt freq pop=full gfinput

C 5 H 10 O 2

1 2
O    2.46871901  -1.03806961   1.25214946
C    1.47121942  -0.04880998   1.45003951
C    1.58819950   1.02874959   0.38479984
C    2.93400908   1.74737930   0.43044984
O    2.90613890   2.78889894  -0.55048978
C    4.02140856   3.56703877  -0.66886973
C    5.16660833   3.51319861   0.02098999
H    2.30145907  -1.74721932   1.89658928
H    1.59153938   0.37577987   2.45112896
H    0.48964983  -0.52847981   1.38862956
H    0.77638972   1.75829935   0.50253981
H    1.46326947   0.58596975  -0.61214978
H    3.74420857   1.04542959   0.20329992
H    3.08544898   2.18045926   1.42597950
H    3.86221862   4.29887819  -1.45429945
H    5.34940815   2.79147887   0.80748969
H    5.96519804   4.21337843  -0.20141993

