%chk=mol_7160.chk
# wB97XD/Def2SVP opt freq pop=full gfinput

C 6 H 13 N 1

1 2
C    2.54328895  -0.28350988  -1.63889933
C    2.42768908   0.18150994  -0.19400991
C    2.85693884   1.62737942  -0.01750999
C    1.91893923   2.59360909   0.01174000
C    4.35224867   1.87197924   0.11571996
C    4.80127811   3.33747888   0.07208998
N    4.82549810   1.26887953   1.36359954
H    2.21755934  -1.32575953  -1.72574937
H    3.57480884  -0.22345991  -2.00224924
H    1.91239929   0.32112989  -2.30019903
H    3.01963878  -0.47615981   0.45161983
H    1.38757944   0.05349998   0.13104995
H    0.86431968   2.35427928  -0.09304997
H    2.15972924   3.64280844   0.13672996
H    4.85186863   1.36165953  -0.71637976
H    4.40172863   3.91488838   0.91339970
H    4.47937870   3.81794858  -0.85802966
H    5.89403772   3.40921855   0.11374996
H    4.37869835   1.74764931   2.14476919
H    5.82399797   1.43991947   1.46406949

