%chk=mol_0903.chk
# wB97XD/Def2SVP opt pop=full gfinput

C 4 H 10 O 2

1 2
O    4.430028  -1.861475   1.822301
C    4.074986  -0.100609  -0.176652
C    5.567095   2.309963   0.332648
C    8.442314   2.060879   0.014211
C    9.775648   0.592731   2.104928
O    9.388764  -2.046044   1.843579
H    3.245000  -3.240880   1.521551
H    2.057685   0.343231  -0.281002
H    4.652279  -0.980447  -1.956339
H    5.154247   3.004457   2.241442
H    4.913590   3.755850  -1.002537
H    9.228969   3.979272  -0.011187
H    8.852422   1.202452  -1.826760
H    9.148542   1.189148   3.983713
H   11.813169   0.921544   1.984590
H    7.578596  -2.322303   2.143479

