%chk=mol_0813.chk
# wB97XD/Def2SVP opt freq pop=full gfinput

C 5 H 8 O 1

1 2
C    3.51854873  -1.11995959  -0.28650987
O    2.56446910  -0.08897997  -0.05821998
C    3.03968883   1.19032955   0.04131998
C    4.30207825   1.63488948  -0.04767998
C    4.63939857   3.03413892   0.08061997
C    5.89221764   3.49421883  -0.00992000
H    2.97995877  -2.07034922  -0.34502989
H    4.22992849  -1.18503952   0.54315984
H    4.03960848  -0.96808964  -1.23740959
H    2.19793940   1.85373926   0.21475993
H    5.12461853   0.94828963  -0.22217992
H    3.82897854   3.73854852   0.25882989
H    6.73949766   2.83915901  -0.18702993
H    6.09734774   4.55549812   0.09300996

