%chk=mol_4153.chk
# wB97XD/Def2SVP opt freq pop=full gfinput

C 4 H 8 N 2 O 1

1 2
C    1.05886960  -0.07012997  -0.01076000
C    2.58103895   0.03513999   0.00796000
N    3.19098878  -1.05772960  -0.76525974
N    3.42021871  -0.70431978  -2.05737925
C    3.37565875   0.58878976  -2.08636928
C    3.09661889   1.25102949  -0.76733971
O    4.32355833   1.73781943  -0.24156992
H    0.61350977   0.77366972   0.52587980
H    0.72777975  -0.99223965   0.47798982
H    0.65840971  -0.06640998  -1.03003967
H    2.94745898   0.01831999   1.04018962
H    2.68387914  -1.94168925  -0.69018972
H    3.55578852   1.18907952  -2.98892879
H    2.37852931   2.06742930  -0.87267965
H    4.90150785   0.95476961  -0.14828993

