%chk=mol_1877.chk
# wB97XD/Def2SVP opt freq pop=full gfinput

C 6 H 11 N 1

1 2
N    1.10746956  -0.15712994  -0.05868998
C    2.51436901   0.13424994  -0.00151000
C    3.35340881  -0.58579975  -1.08368957
C    4.44900846  -0.31954989   0.00911000
C    3.30602884  -0.73857975   1.00096965
C    4.52977800   1.21044958   0.12321995
C    3.02927899   1.54902947   0.11127996
H    0.58070982   0.20412992   0.73533970
H    0.88429964  -1.15011954  -0.11472996
H    3.48150873  -0.06664997  -2.03859925
H    3.12692881  -1.64032936  -1.28246951
H    5.36717796  -0.90435964  -0.01287999
H    3.07414865  -1.81000936   1.03342962
H    3.38881874  -0.36436987   2.02601933
H    5.01212788   1.52729940   1.05301964
H    5.05585814   1.65809941  -0.72551978
H    2.76111889   2.17394924  -0.74644977
H    2.71852899   2.04725933   1.03502965

