%chk=mol_0551.chk
# wB97XD/Def2SVP opt freq pop=full gfinput

C 5 H 7 N 1

1 2
N    1.85268927  -0.35327986   1.55860949
C    2.41565895  -0.03957998   0.25588989
C    2.97300887   1.34520948   0.25819990
C    4.25673866   1.63645947   0.00000000
C    4.72606802   2.96180892   0.00000000
C    5.12334824   4.08370829   0.00000000
H    1.49143946  -1.30512941   1.54470944
H    1.05035961   0.24850991   1.73464942
H    1.63705933  -0.11637995  -0.51043981
H    3.18796873  -0.77721971   0.01261000
H    2.27492905   2.15210915   0.47040981
H    4.97021818   0.84554970  -0.21166992
H    5.47815800   5.08783817   0.00287000

