%chk=mol_3126.chk
# wB97XD/Def2SVP opt freq pop=full gfinput

C 5 H 10 O 2

1 2
C    1.01026964  -0.09062997  -0.06466997
C    2.52954888  -0.00602000   0.01012000
C    3.02580881   1.43244946   0.19871992
O    2.50628901   1.97163928   1.41529942
C    4.54837847   1.48965943   0.25165990
C    5.00479841   2.91809893   0.13340995
O    5.92030764   3.26633883  -0.60768974
H    0.69856977  -1.12752962  -0.22228992
H    0.62636977   0.50973982  -0.89497966
H    0.54543984   0.26248989   0.86048967
H    2.95537901  -0.42927986  -0.90756971
H    2.86648893  -0.63086981   0.84719968
H    2.65325904   2.06044936  -0.61797976
H    2.57302904   1.29198956   2.10934925
H    4.99319792   0.91929966  -0.57110977
H    4.92715788   1.10166955   1.20452952
H    4.52538824   3.64173865   0.81497967

