%chk=mol_1717.chk
# wB97XD/Def2SVP opt freq pop=full gfinput

C 5 H 12 N 2

1 2
C    0.97410965   1.05717957   0.49583983
N    2.41291928   0.97117960   0.70436972
C    3.13656902   1.55377948  -0.43468982
C    4.63500834   1.46622944  -0.14421995
N    5.05364799   1.89119935   1.21359956
C    5.43752766   0.37229985  -0.81546974
C    5.58434772   1.79233932  -1.27336955
H    0.45463985   0.64050978   1.36305952
H    0.66225976   0.49184981  -0.38857988
H    0.65118974   2.09773922   0.38763985
H    2.68438911  -0.00900000   0.78740972
H    2.86661887   2.61027908  -0.55425984
H    2.88801885   1.02663958  -1.36261952
H    5.61173773   1.16412950   1.65610933
H    4.20040846   1.93842936   1.78249931
H    4.92642832  -0.31985986  -1.47381949
H    6.27224779  -0.06971997  -0.28384990
H    6.50252771   2.31632900  -1.03129959
H    5.16824770   2.06531930  -2.23563910

