%chk=mol_4580.chk
# wB97XD/Def2SVP opt pop=full gfinput

C 5 H 13 N 1 O 1

1 2
C    1.669649  -0.235517  -0.043048
C    4.548419  -0.216657  -0.059829
C    5.619611   2.467756   0.128558
O    4.947247   3.525889   2.524769
C    8.525688   2.554683  -0.142977
N    9.768523   1.375721   2.055852
C   12.508608   1.594664   1.854218
H    0.970148  -2.174489  -0.220304
H    0.912454   0.865324  -1.622273
H    0.922073   0.550931   1.717856
H    5.215890  -1.119682  -1.799964
H    5.192287  -1.367330   1.537311
H    4.775319   3.660211  -1.339211
H    6.350708   3.084109   3.648872
H    9.098200   4.545699  -0.227032
H    9.104871   1.634708  -1.906469
H    9.307563  -0.496129   2.117608
H   13.102246   3.575948   1.831882
H   13.220297   0.652088   0.155392
H   13.390959   0.698348   3.496050

