%chk=mol_4433.chk
# wB97XD/Def2SVP opt pop=full gfinput

C 5 H 13 N 1 O 1

1 2
C    4.600349  -1.859339   2.940130
C    4.238448  -0.152576   0.651672
C    5.529660   2.450880   0.817458
C    4.293023   4.140749   2.853846
O    5.524520   6.542837   2.896345
N    8.280799   2.390560   1.320919
C    9.716575   1.236523  -0.726203
H    3.577743  -3.636721   2.657635
H    3.872238  -0.989196   4.668115
H    6.592933  -2.331374   3.230695
H    2.205821   0.130750   0.361864
H    4.915121  -1.155322  -1.029768
H    5.258182   3.425072  -0.995621
H    4.459829   3.321931   4.744422
H    2.290159   4.452365   2.444361
H    7.293890   6.155613   2.509613
H    8.625145   1.430655   2.958253
H    9.360191   2.191478  -2.526602
H    9.296885  -0.776696  -0.928441
H   11.735124   1.414460  -0.322501

