%chk=mol_5992.chk
# wB97XD/Def2SVP opt pop=full gfinput

C 4 H 4 N 2 O 1

1 2
O    2.246582  -0.400905   0.776299
C    4.467634  -0.084244   0.387677
C    6.267371   2.134786  -0.116823
C    8.064482   0.084338  -1.153054
N    6.347741  -1.795674  -0.003590
C    8.222274  -0.135285  -3.880420
N    8.338341  -0.320498  -6.062997
H    6.904001   3.089381   1.602639
H    5.552752   3.516629  -1.475234
H    9.914353   0.066329  -0.221929
H    5.830259  -3.508957  -0.680717

