%chk=mol_0192.chk
# wB97XD/Def2SVP opt freq pop=full gfinput

C 4 H 8 O 1

1 2
C   -0.79558969  -0.99981958  -0.19912992
C   -1.18902957   0.38475984   0.24734992
C    0.00457000   1.20366955  -0.19344993
O    1.15053964   0.34528989  -0.09739996
C    0.69414973  -1.00471961   0.06839997
H   -1.32636952  -1.79933929   0.32419989
H   -0.98253965  -1.10986960  -1.27413952
H   -1.27774954   0.41078985   1.33968949
H   -2.13036919   0.73586977  -0.18260993
H   -0.09240997   1.51456940  -1.23921955
H    0.15649995   2.09368920   0.42330986
H    1.24070954  -1.66430938  -0.61102980
H    0.91095966  -1.30623949   1.09849954

