%chk=mol_0517.chk
# wB97XD/Def2SVP opt pop=full gfinput

C 5 H 7 N 1

1 2
N    1.931073  -0.138763  -0.184891
C    4.692247  -0.019143  -0.040742
C    6.211757  -1.342934  -2.033156
C    6.141062   1.501274  -1.972062
C    8.363493   2.838747  -1.185595
C   10.223986   3.962548  -0.537419
H    1.142113   1.311111   0.810919
H    1.280573  -1.758900   0.631187
H    5.448893  -0.072981   1.871320
H    5.219178  -2.278273  -3.561265
H    7.925115  -2.300685  -1.448702
H    5.043244   2.417054  -3.445103
H   11.878441   4.960814   0.032447

