%chk=mol_6026.chk
# wB97XD/Def2SVP opt pop=full gfinput

C 6 H 11 N 1

1 2
C    1.941032   0.115821   0.357687
C    4.749524   0.091444   0.122738
C    6.124659  -1.261298  -2.009554
C    4.707856  -2.614304  -3.965553
C    4.881144  -2.242009  -6.464262
N    5.903467   1.494395  -1.943111
C    8.250866   2.757715  -1.242079
H    1.350039   1.670045   1.589675
H    1.284220  -1.653227   1.205551
H    0.983338   0.357385  -1.461250
H    5.655402   0.120829   1.960704
H    7.949870  -2.089489  -1.569531
H    3.421217  -4.074382  -3.302259
H    6.127248  -0.803001  -7.229223
H    3.757040  -3.340167  -7.779096
H    7.825129   4.627788  -0.465288
H    9.421532   3.031253  -2.926354
H    9.387157   1.736356   0.159134

