%chk=mol_4870.chk
# wB97XD/Def2SVP opt freq pop=full gfinput

C 4 H 10 N 2 O 1

1 2
C    1.44035947   0.06864998   0.07101998
C    2.48059893   1.17097950   0.12468995
O    3.77695870   0.56601977   0.00478000
C    4.84201860   1.41158950   0.02535999
C    6.13471746   0.65369976  -0.07266998
N    4.70084810   2.70181918   0.11761996
N    5.84356737   3.42814875   0.11285996
H    0.43114984   0.47955981   0.16555993
H    1.60422945  -0.65622979   0.87553966
H    1.51091945  -0.48205984  -0.87280965
H    2.40763927   1.70053935   1.08075964
H    2.31888914   1.86968935  -0.70324975
H    5.95015764  -0.42342985  -0.12400996
H    6.74887753   0.85563964   0.80944967
H    6.67215729   0.95455962  -0.97628963
H    5.62448788   4.39972830   0.34813985
H    6.24066782   3.47174859  -0.82928973

