%chk=mol_3450.chk
# wB97XD/Def2SVP opt freq pop=full gfinput

C 5 H 12 O 2

1 2
C    1.40427947  -0.25594988  -0.86847967
O    2.80662894  -0.02775999  -0.85611963
C    3.12450886   1.24955952  -0.29964989
C    4.64031839   1.40359950  -0.29322991
C    5.07837820   2.78127885   0.18044993
O    4.60497856   3.00208902   1.50711954
C    5.02407789   4.26307869   2.01195931
H    1.22036946  -1.24817955  -1.29079962
H    0.90108961   0.48816982  -1.49314940
H    1.00111961  -0.22972992   0.14850995
H    2.72647882   1.31213951   0.71976978
H    2.66543889   2.03382921  -0.91199970
H    5.03744793   1.21166945  -1.29784954
H    5.06594849   0.63040978   0.35981986
H    4.67941809   3.55508852  -0.48510981
H    6.17320776   2.83857894   0.16884995
H    4.62634850   4.37832832   3.02374887
H    4.63478851   5.07400799   1.38861942
H    6.11633778   4.31335831   2.05790925

