%chk=mol_0395.chk
# wB97XD/Def2SVP opt pop=full gfinput

C 5 H 11 N 1

1 2
C    2.115473   0.021486   0.578672
C    4.738734   0.137289  -0.637367
C    4.915083  -1.535724  -3.020198
N    4.514235  -4.215866  -2.475277
C    5.363855   2.848327  -1.301209
C    7.328679   4.129089  -0.350450
H    2.008703   1.268724   2.228743
H    1.675129  -1.894186   1.224373
H    0.638217   0.601273  -0.751261
H    6.114719  -0.556033   0.754794
H    6.782586  -1.317857  -3.892458
H    3.514645  -0.931673  -4.422413
H    5.861609  -4.827551  -1.241928
H    4.763886  -5.233427  -4.091522
H    4.114576   3.795005  -2.634921
H    8.626959   3.277257   0.991048
H    7.675142   6.076093  -0.895862

