%chk=mol_1601.chk
# wB97XD/Def2SVP opt pop=full gfinput

C 5 H 10 N 2

1 2
C    1.761376   0.293304   0.851907
C    4.491520   0.180110  -0.093050
N    4.622553  -0.943427  -2.635979
N    3.842701  -3.379529  -2.853260
C    3.887129  -4.198763  -5.151715
C    5.577413   2.813046  -0.213993
C    7.594790   3.599002   1.099783
H    1.663526   1.203321   2.709924
H    0.958016  -1.604245   1.051198
H    0.546301   1.365270  -0.439229
H    5.604852  -0.984056   1.213488
H    6.445553  -0.750202  -3.253976
H    3.291808  -6.151285  -5.556267
H    4.486059  -3.042421  -6.782416
H    4.622553   4.143376  -1.459379
H    8.608666   2.347663   2.370907
H    8.271577   5.528091   0.926211

