%chk=mol_5224.chk
# wB97XD/Def2SVP opt freq pop=full gfinput

C 4 H 6 N 2 O 1

1 2
C    1.47913945  -0.23297991   0.24193992
N    2.59048891   0.35948986   0.52797979
N    2.79816890   1.45511949  -0.24132991
C    2.78716874   2.75313902   0.47655982
C    4.02709866   3.10750890  -0.34512988
O    4.64419842   4.12740850  -0.57265979
C    4.18904829   1.63462937  -0.72373974
H    1.18922949  -1.13961959   0.79589975
H    0.78168970   0.11520996  -0.54042977
H    2.98273897   2.70571899   1.55231941
H    1.91455925   3.37637877   0.27209991
H    4.32510805   1.45360947  -1.79200935
H    4.96564817   1.12466955  -0.14521995

