%chk=mol_4688.chk
# wB97XD/Def2SVP opt freq pop=full gfinput

C 5 H 11 N 1 O 1

1 2
C    2.12831926  -0.05266998  -1.67532933
C    2.27457905   0.13360995  -0.17265993
N    2.86213899   1.42706943   0.17092994
C    1.94417930   2.55190897   0.28430989
C    4.24775839   1.53258944   0.18539993
C    4.83751822   2.88657880   0.48643982
O    4.98970795   0.57351983  -0.03118999
H    1.70029938  -1.03570962  -1.89568937
H    3.09763885   0.01863999  -2.17927909
H    1.47118938   0.70915973  -2.10646915
H    2.90639901  -0.66767973   0.22750992
H    1.29914939   0.04792998   0.31958988
H    1.16239953   2.29779911   1.00690961
H    1.48964942   2.73644900  -0.69356978
H    2.43510890   3.46682858   0.61822975
H    4.54519796   3.60706854  -0.28206989
H    5.92981815   2.81353903   0.48570982
H    4.52226830   3.22490883   1.47713947

