%chk=mol_0912.chk
# wB97XD/Def2SVP opt freq pop=full gfinput

C 4 H 6 O 2

1 2
O    0.98522961  -0.00156000  -0.05724998
C    2.40329909   0.08832997   0.05895998
C    2.85674906   1.51583946   0.02959999
C    2.07945919   2.60484886  -0.08780997
C    4.32206869   1.72111940   0.14381994
O    5.10852814   0.78650975   0.25476989
H    0.76887971  -0.94923967  -0.03089999
H    2.84538889  -0.46939984  -0.77342969
H    2.69447899  -0.38489985   1.00275970
H    1.00076962   2.50305891  -0.17424993
H    2.47616911   3.61361861  -0.10214996
H    4.66920853   2.76765895   0.12344995

