%chk=mol_1843.chk
# wB97XD/Def2SVP opt freq pop=full gfinput

C 7 H 10

1 2
C    2.46559906  -0.60215980  -1.36024940
C    2.33560920   0.08345997  -0.00860000
C    2.91748881   1.45586956  -0.00754000
C    2.27158928   2.62355900   0.15796994
C    3.22197866   3.70623851   0.11921995
C    4.45397854   3.21158886  -0.06215998
C    4.39307833   1.71468937  -0.16401994
H    1.99290931  -1.58994937  -1.32911944
H    3.51568866  -0.74376971  -1.63880944
H    1.97803926  -0.01925999  -2.14999914
H    2.83164907  -0.52127981   0.75856972
H    1.27438962   0.12592995   0.26348990
H    1.21003950   2.75656891   0.30544990
H    2.95902896   4.74833822   0.22623990
H    5.36125803   3.79278874  -0.12852995
H    4.76253796   1.37821949  -1.13687968
H    4.96901846   1.24396956   0.63812971

