%chk=mol_3477.chk
# wB97XD/Def2SVP opt freq pop=full gfinput

C 5 H 6 O 2

1 2
C    2.20319915  -1.25861955  -0.45747983
O    3.47827864  -0.64018977  -0.27721989
C    3.42680860   0.72469974  -0.19574992
O    2.39791918   1.38292944  -0.26475990
C    4.83029795   1.26230943  -0.00896000
C    4.88530827   2.73095894   0.07513997
C    4.93741846   3.92854834   0.14408995
H    2.35426903  -2.34095907  -0.49523982
H    1.75321937  -0.93839967  -1.40237939
H    1.54281950  -1.03063965   0.38505986
H    5.43844795   0.92584962  -0.85581970
H    5.23946810   0.83105969   0.91119969
H    4.97220802   4.99240828   0.20391992

