%chk=mol_6564.chk
# wB97XD/Def2SVP opt freq pop=full gfinput

C 6 H 13 N 1

1 2
C    0.97712964   0.03616999   0.17109993
C    2.49861908   0.00918000   0.00158000
C    2.98256898  -1.33314943  -0.56439978
C    2.69020915  -1.47822940  -2.05815935
N    3.24097872  -0.36328986  -2.83260894
C    2.69744897   0.91654968  -2.37168908
C    2.98981881   1.15869963  -0.89100969
H    0.65695977   0.98531961   0.61377978
H    0.65133977  -0.76781976   0.83918971
H    0.44913983  -0.08421997  -0.77899975
H    2.93498874   0.13899995   1.00070965
H    2.52764893  -2.16560912  -0.01584999
H    4.06635857  -1.41145945  -0.40686983
H    3.13519883  -2.41067910  -2.42359924
H    1.61201942  -1.56117940  -2.23885918
H    4.25453806  -0.35155988  -2.71624899
H    3.14837885   1.72011936  -2.96389890
H    1.62021947   0.95645964  -2.56896901
H    4.07416868   1.26911950  -0.75712973
H    2.53954911   2.10727906  -0.57479978

