%chk=mol_4491.chk
# wB97XD/Def2SVP opt freq pop=full gfinput

C 4 H 10 N 2 O 1

1 2
C    0.96843964  -0.44497985   0.12836994
C    2.42471886  -0.42881986  -0.33268988
C    2.90995884  -1.84245932  -0.63559973
N    2.58853889   0.41316986  -1.50926948
C    2.63805890   1.77245927  -1.40190947
N    2.69497895   2.37489915  -2.61665893
O    2.63866925   2.41423917  -0.36435989
H    0.62525976   0.56206977   0.38906986
H    0.84549969  -1.08022964   1.01204956
H    0.30776989  -0.82319969  -0.65962976
H    3.04076886  -0.00924000   0.47192982
H    2.32786918  -2.29892898  -1.44416940
H    2.82735896  -2.48315907   0.24870992
H    3.95932865  -1.83299923  -0.95017970
H    2.19433928   0.07687997  -2.37539911
H    3.24585891   1.90902936  -3.32203865
H    2.84724903   3.37438869  -2.55243897

