%chk=mol_6977.chk
# wB97XD/Def2SVP opt freq pop=full gfinput

C 6 H 9 N 1

1 2
C    3.05561876  -1.18010950  -0.47516984
C    2.44867897   0.06279998   0.15613994
C    3.44717860   1.17404950   0.25495991
N    3.68089867   2.05872917  -0.87910968
C    2.98724890   2.61377883   0.28490990
C    3.69437861   3.54532862   1.10969961
C    4.28615856   4.32948828   1.80186927
H    2.31544924  -1.98485923  -0.52101982
H    3.91335869  -1.53625941   0.10492996
H    3.40198851  -0.97443962  -1.49331951
H    2.09353924  -0.18221994   1.16364956
H    1.57086945   0.36991987  -0.42517984
H    4.32188845   0.90324968   0.83668971
H    3.01796889   1.88764930  -1.63487935
H    1.92987931   2.81472898   0.14424995
H    4.81853819   5.02399826   2.40796924

