%chk=mol_1323.chk
# wB97XD/Def2SVP opt freq pop=full gfinput

C 5 H 8 N 2

1 2
C    2.14746928  -0.50835979   1.42428946
C    2.30078936   0.06116998   0.02052999
C    2.88665915   1.45201945   0.03260999
C    2.15351915   2.57121897  -0.10814996
N    0.79430974   2.70629907  -0.24822991
C    4.30649805   1.57665944   0.15871994
N    5.45719814   1.67341948   0.26860991
H    1.71655941  -1.51369941   1.37762952
H    1.48464942   0.11503996   2.03384924
H    3.11372900  -0.58066982   1.93452930
H    1.32422960   0.04946998  -0.47747982
H    2.94189882  -0.60236979  -0.57362980
H    2.64998889   3.54390883  -0.12569995
H    0.24135992   1.91114926   0.06215998
H    0.42381984   3.59518862   0.08439997

