%chk=mol_6758.chk
# wB97XD/Def2SVP opt pop=full gfinput

C 6 H 11 N 1

1 2
C    1.593512   0.189464   0.331723
C    4.449927   0.046109  -0.044276
C    5.952429   1.846810   1.738888
N    7.758573  -0.222818   2.259432
C    5.812817  -2.072954   1.476500
C    5.191626   0.260272  -2.783434
C    4.748315  -1.619231  -4.418860
H    1.088407   0.112987   2.339065
H    0.628391  -1.387909  -0.600215
H    0.828664   1.955867  -0.432823
H    4.925666   2.461803   3.432385
H    6.800425   3.526248   0.877079
H    9.271979  -0.204449   1.062688
H    6.551151  -3.680695   0.404496
H    4.728945  -2.828693   3.074660
H    6.083218   1.995929  -3.423315
H    3.848408  -3.373029  -3.851432
H    5.282540  -1.432790  -6.391413

