%chk=mol_3721.chk
# wB97XD/Def2SVP opt freq pop=full gfinput

C 7 H 14

1 2
C    2.27407932  -0.45082983  -1.50989938
C    2.45074892   0.02537999  -0.07761998
C    3.25005865   1.32012951  -0.03936999
C    2.53782892   2.61242890  -0.52312982
C    3.27999878   3.36233878   0.60101974
C    3.35484886   2.01138926   1.35703957
C    4.61993790   1.75179935   2.14976931
H    1.71709931  -1.39295948  -1.53217936
H    3.24383879  -0.61524981  -1.99214923
H    1.72399938   0.28450990  -2.10657930
H    2.97482896  -0.74751967   0.49496982
H    1.46715939   0.16058993   0.38499984
H    4.23529863   1.19290960  -0.51411980
H    1.44885945   2.60501909  -0.39954984
H    2.77666879   2.93250895  -1.54173946
H    4.25130844   3.76525855   0.29050991
H    2.71085906   4.15266848   1.09714961
H    2.46583915   1.84464931   1.98225927
H    5.51774788   1.92188931   1.54655933
H    4.64399862   0.71749973   2.50744915
H    4.66893816   2.41078901   3.02235866

