%chk=mol_4149.chk
# wB97XD/Def2SVP opt freq pop=full gfinput

C 6 H 11 N 1

1 2
C    0.75313973   1.06847954  -0.44299984
C   -0.49647981   0.33097988  -0.04561998
C    0.82360965  -0.38634986  -0.06734997
C    1.56707942  -0.88844967   1.14894950
C    1.38843954  -0.25787991   2.55020905
N    1.54808939  -1.60824943   3.14039874
C    1.09454954  -2.18254900   1.85170925
H    0.87889969   1.32899952  -1.48739946
H    1.14751959   1.80420923   0.24793991
H   -1.21455956   0.09474996  -0.82314968
H   -0.95140964   0.57909977   0.90571964
H    0.98187959  -1.09552956  -0.87460965
H    2.63592911  -0.95114964   0.88414967
H    0.40609986   0.18256994   2.75235891
H    2.15765905   0.46248984   2.84340906
H    2.51896906  -1.83484936   3.35716867
H    1.61129940  -3.09875894   1.55147946
H    0.01330000  -2.36010909   1.81095922

