%chk=mol_6112.chk
# wB97XD/Def2SVP opt freq pop=full gfinput

C 4 H 6 N 2 O 1

1 2
O    3.23946881  -0.74587971  -0.77022970
C    2.23328900   0.02855999  -0.13360995
C    2.71957898   1.42140949  -0.07370997
C    2.13335919   2.58919907   0.36438987
C    3.11206889   3.58143878   0.16453993
N    4.23569822   3.08898878  -0.35890988
N    3.97195840   1.77840924  -0.49641982
H    2.88997889  -1.65212929  -0.82488972
H    2.06195927  -0.36805987   0.87106967
H    1.31054950  -0.03772999  -0.71714973
H    1.14018965   2.71181893   0.77107972
H    3.05226874   4.64027786   0.37899986
H    4.67786837   1.16173959  -0.88792968

