%chk=mol_2112.chk
# wB97XD/Def2SVP opt pop=full gfinput

C 5 H 10 N 2

1 2
N    1.980433   0.287427   1.034833
C    4.287921  -0.016743  -0.041876
N    4.979523  -2.076998  -1.129773
C    6.121314   2.271885   0.085264
C    5.099143   4.968940  -0.463777
C    6.969348   5.951768   1.539824
C    6.911107   3.290826   2.721546
H    1.771977   1.697617   2.314442
H    1.013630  -1.299036   1.486137
H    3.532900  -3.354132  -1.090202
H    7.807290   1.895339  -1.079185
H    3.114666   5.280178   0.036396
H    5.415256   5.666703  -2.383001
H    8.817614   6.478151   0.766076
H    6.279220   7.484166   2.740160
H    8.723051   2.602550   3.436429
H    5.483664   3.071693   4.205283

