%chk=mol_0790.chk
# wB97XD/Def2SVP opt freq pop=full gfinput

C 4 H 10 O 2

1 2
C    1.05354965  -0.02192999   0.08506997
C    2.56720901  -0.08871996   0.04255999
O    3.07656884   1.24346948   0.01387999
C    4.50942802   1.25695956  -0.02809999
C    4.96487808   2.71193910  -0.05298998
O    4.51063824   3.37774873   1.12448955
H    0.61938977  -1.02534962   0.10707995
H    0.66661978   0.51211977  -0.78902972
H    0.71684968   0.52849984   0.96963966
H    2.89144897  -0.62751979  -0.85449970
H    2.94238901  -0.60906976   0.93057966
H    4.86106825   0.73474973  -0.92391968
H    4.89329815   0.75953972   0.86943966
H    4.54214859   3.23895884  -0.91408968
H    6.05544758   2.78099895  -0.09116997
H    3.56521869   3.14041877   1.19960952

