%chk=mol_4448.chk
# wB97XD/Def2SVP opt freq pop=full gfinput

C 4 H 9 N 1 O 2

1 2
C    1.10546958  -0.12442996  -0.17989993
C    2.40456915   0.61838973   0.01472999
C    3.66268873  -0.21184991   0.19878992
C    4.32009840  -0.46327981  -1.15118957
O    5.01828814   0.68710977  -1.61011934
N    2.37585902   1.91835928  -0.03601999
O    3.64496875   2.47995901   0.12350996
H    0.27352989   0.57555979  -0.29069990
H    0.92082965  -0.76414973   0.68664974
H    1.17280960  -0.74352968  -1.07751954
H    3.37339878  -1.16578960   0.65265971
H    4.34706879   0.29194990   0.88804966
H    3.58934855  -0.74791968  -1.91420925
H    5.05251837  -1.27117956  -1.06295955
H    4.49315834   1.47054946  -1.34729958
H    3.44550872   3.43305874   0.20071992

