%chk=mol_1877.chk
# wB97XD/Def2SVP opt pop=full gfinput

C 6 H 11 N 1

1 2
N    2.092815  -0.296933  -0.110908
C    4.751471   0.253696  -0.002853
C    6.337027  -1.107002  -2.047877
C    8.407411  -0.603862   0.017215
C    6.247491  -1.395714   1.891559
C    8.560043   2.287419   0.232852
C    5.724510   2.927243   0.210289
H    1.097383   0.385750   1.389591
H    1.671085  -2.173412  -0.216808
H    6.579101  -0.125950  -3.852396
H    5.909041  -3.099774  -2.423517
H   10.142500  -1.708993  -0.024340
H    5.809301  -3.420423   1.952900
H    6.403942  -0.688560   3.828623
H    9.471553   2.886179   1.989919
H    9.554191   3.133355  -1.371034
H    5.217761   4.108170  -1.410586
H    5.137277   3.868761   1.955923

