%chk=mol_4752.chk
# wB97XD/Def2SVP opt freq pop=full gfinput

C 4 H 5 N 1 O 2

1 2
C    0.78466976   0.19548993  -0.04394998
C    2.10250926  -0.03751999  -0.06124998
N    2.70680881  -1.26927948  -0.11862995
C    2.14355922  -2.50978923  -0.17011994
O    2.80102897  -3.54107857  -0.21903992
C    3.02589893   1.13884962  -0.01457999
O    4.24484825   1.00093961  -0.02722999
H    0.38335985   1.20408952   0.00253000
H    0.04596998  -0.59686977  -0.07479998
H    3.72650862  -1.26481950  -0.12391996
H    1.04412961  -2.52329898  -0.16482994
H    2.54830909   2.13172936   0.03160999

