%chk=mol_1879.chk
# wB97XD/Def2SVP opt freq pop=full gfinput

C 5 H 10 N 2

1 2
N    1.06519961  -0.13518994  -0.04986998
C    2.48372912   0.13773996  -0.00079000
C    3.33698893  -0.57087982  -1.06487954
N    4.44579840  -0.35712987  -0.00580000
C    3.30490875  -0.72660977   0.96991962
C    4.50716829   1.13680959   0.10889996
C    3.02775884   1.53030932   0.10741996
H    0.54938984   0.22351992   0.75344974
H    0.83227974  -1.12643957  -0.11181996
H    3.49464869  -0.04727998  -2.01462913
H    3.11845875  -1.62473941  -1.27984953
H    3.08193898  -1.80017924   1.01484966
H    3.42869854  -0.35365987   1.99270928
H    5.01025820   1.43556941   1.03442967
H    5.04762793   1.57045949  -0.73878974
H    2.76935911   2.15757918  -0.75182968
H    2.73486900   2.03129911   1.03574967

