%chk=mol_2172.chk
# wB97XD/Def2SVP opt freq pop=full gfinput

C 6 H 10 O 1

1 2
C   -1.25129950  -0.76552969  -0.52924979
C   -1.25390947   0.76429975  -0.52303982
C   -0.00151000   1.08118963   0.29182991
C    1.25853956   0.76718974  -0.51295978
C    1.26119959  -0.76251972  -0.51702982
C    0.00158000  -1.08486962   0.28437990
O   -0.00421000  -0.00486000   1.24725950
H   -1.22814953  -1.19068956  -1.53678954
H   -2.14786911  -1.13418949  -0.01821999
H   -2.15101933   1.12552953  -0.00778000
H   -1.23373950   1.19767964  -1.52716947
H   -0.00456000   2.06227922   0.77133971
H    2.15051913   1.13256955   0.00843000
H    1.24429953   1.19924951  -1.51790941
H    2.15360928  -1.12719953   0.00370000
H    1.24985957  -1.18912959  -1.52407944
H    0.00041000  -2.06915927   0.75756973

