%chk=mol_3341.chk
# wB97XD/Def2SVP opt pop=full gfinput

C 6 H 12 O 1

1 2
C    2.388463   1.749149  -0.747160
O    4.950912   1.362946  -0.045221
C    6.446120   3.556276  -0.507391
C    9.088128   3.014775   0.325827
C   11.054993   2.117589  -1.535610
C   11.221628   4.745234  -0.448791
C   13.242992   5.394620   1.403159
H    1.320900   0.046374  -0.272026
H    2.241669   2.075524  -2.782943
H    1.580378   3.344324   0.290640
H    5.696126   5.146499   0.588328
H    6.372081   4.037740  -2.522123
H    9.130060   2.222885   2.215364
H   10.522335   1.920888  -3.504308
H   12.386115   0.695665  -0.895976
H   10.800484   6.318375  -1.693006
H   13.728463   3.792094   2.618593
H   12.622823   6.952964   2.611828
H   14.954763   5.989922   0.409012

