%chk=mol_2065.chk
# wB97XD/Def2SVP opt pop=full gfinput

C 7 H 12

1 2
C    2.396607   0.935358   2.937844
C    5.054167   1.041957   1.990052
C    5.842353   2.640250   0.186308
C    8.500517   2.758603  -0.810031
C    9.775213   5.248128  -0.330570
C   11.602938   6.318715  -2.236302
C    9.076789   7.558810  -1.844883
H    1.620875  -0.958809   2.644313
H    1.167227   2.290442   1.972099
H    2.352048   1.352458   4.962345
H    6.381775  -0.274880   2.844076
H    4.506997   3.951474  -0.666223
H    8.434981   2.362025  -2.844189
H    9.661263   1.261657   0.033259
H   10.208112   5.511972   1.656232
H   11.906768   5.309450  -3.993256
H   13.264894   7.287861  -1.533116
H    9.027921   9.357962  -0.866250
H    7.675387   7.375053  -3.327297

