%chk=mol_5191.chk
# wB97XD/Def2SVP opt freq pop=full gfinput

C 5 H 9 N 1 O 1

1 2
C    0.79850972  -0.10961996  -0.01535999
N    2.23799920  -0.23426992  -0.14973995
C    2.82950902  -1.47979951  -0.02886999
O    2.24774933  -2.54902887   0.10346996
C    3.02363873   0.96925962  -0.13731995
C    4.13827848   1.19669950  -1.12565958
C    2.88223886   2.00711918  -1.22080958
H    0.42417982   0.63130981  -0.72631973
H    0.57157975   0.21218991   1.00503969
H    0.30055988  -1.06428957  -0.20429993
H    3.93063855  -1.42559946  -0.06498998
H    3.18799877   1.34164953   0.87210971
H    4.31495857   0.45638981  -1.89751923
H    5.03594828   1.69009936  -0.77109975
H    2.92532873   3.05023885  -0.93062967
H    2.21966934   1.80564928  -2.05452919

