%chk=mol_5883.chk
# wB97XD/Def2SVP opt freq pop=full gfinput

C 4 H 8 N 2 O 1

1 2
N    1.53829944   2.74745893   1.14228964
C    2.38618898   2.10760927   0.29825991
O    2.06115913   1.09139955  -0.29538989
N    3.59463882   2.73326898   0.21433993
C    4.65282869   2.11142921  -0.53875977
C    5.79532814   3.07347870  -0.59346974
C    6.99134731   2.86276889  -0.02825999
H    1.58437943   3.75606871   1.14483953
H    0.60133976   2.36383891   1.13047957
H    3.86553860   3.21629882   1.05826962
H    4.29608870   1.87943935  -1.54782951
H    4.92296839   1.17113948  -0.04546998
H    5.62858772   3.99320865  -1.15014958
H    7.20979691   1.95444930   0.52569979
H    7.78526735   3.59910846  -0.11556996

