%chk=mol_7140.chk
# wB97XD/Def2SVP opt pop=full gfinput

C 6 H 11 N 1

1 2
C    1.889726   0.000000   0.000000
C    4.618491   0.000000   0.000000
C    6.867567   0.000000   0.000000
C    9.596332   0.000000   0.000000
C   10.682112   2.681994  -0.027250
C   10.030780   4.126689  -2.449558
N   11.206284   6.621978  -2.421722
H    1.145476   1.929316   0.021184
H    1.144947  -0.982884   1.660049
H    1.145098  -0.945959  -1.681422
H   10.314503  -1.056111  -1.630985
H   10.292413  -0.977310   1.688999
H   12.743670   2.554248   0.158775
H    9.992967   3.734628   1.622500
H    7.983639   4.358256  -2.641932
H   10.706017   3.081784  -4.104466
H   10.532710   7.629826  -0.924832
H   10.667599   7.589178  -3.997508

