%chk=mol_5562.chk
# wB97XD/Def2SVP opt freq pop=full gfinput

C 5 H 9 N 1 O 1

1 2
N    0.93239963  -0.02686999  -0.37397984
C    2.36636925  -0.06986997  -0.03138999
C    3.28427887  -0.89088964  -0.90229970
O    2.64301896  -1.51337945  -2.03346920
C    3.36178875   0.61482978  -0.93737966
C    4.51277828   1.29321957  -0.33074990
C    5.77808762   1.22319949  -0.76400971
H    0.52723980   0.85611963  -0.06003997
H    0.43253985  -0.75539976   0.13850994
H    2.57921910  -0.07951997   1.03536963
H    4.08566856  -1.43895948  -0.41894984
H    1.72161937  -1.18805957  -2.08059907
H    2.97842884   1.10701966  -1.82596934
H    4.30428839   1.92215919   0.53375977
H    6.04250765   0.62247980  -1.62910938
H    6.57188749   1.76738930  -0.26358992

