%chk=mol_0024.chk
# wB97XD/Def2SVP opt pop=full gfinput

C 3 H 9 N 1

1 2
C    1.880561   0.016176   0.007880
C    4.761807   0.011735   0.005612
C    5.794070  -1.386360  -2.294147
N    5.684447   2.617781   0.036264
H    1.140488   0.998607   1.674581
H    1.148462  -1.919773   0.045712
H    1.115203   0.950324  -1.675715
H    5.427124  -0.934073   1.721805
H    5.179815  -0.502478  -4.064366
H    5.140981  -3.350711  -2.306619
H    7.864908  -1.414384  -2.279841
H    5.102922   3.535715  -1.556189
H    7.611004   2.622392  -0.023187

