%chk=mol_3143.chk
# wB97XD/Def2SVP opt pop=full gfinput

C 6 H 12 O 1

1 2
C    2.255615   2.127567   2.813953
C    5.065581   1.592812   2.737665
O    6.170976   3.076550   0.783348
C    8.865102   2.805582   0.469635
C   10.066912   4.521907  -1.573065
C   12.348964   4.837245   0.204865
C   10.556728   4.204943   2.407095
H    1.331539   1.010701   4.286522
H    1.379802   1.686411   0.992087
H    1.906034   4.133776   3.179332
H    5.400516  -0.412414   2.347758
H    5.933475   2.080513   4.552558
H    9.394017   0.814245   0.217640
H    9.022838   6.276461  -1.924195
H   10.475716   3.609736  -3.380323
H   13.835063   3.425223  -0.090820
H   13.201967   6.717051   0.249406
H   11.369821   3.028248   3.897125
H    9.661301   5.862025   3.268867

