%chk=mol_5901.chk
# wB97XD/Def2SVP opt pop=full gfinput

C 4 H 8 N 2 O 1

1 2
N    1.466692   3.298234  -0.525571
N    3.904665   3.218223  -1.281159
C    5.420509   2.441167   0.473471
C    8.276150   2.240837  -0.008844
C    9.572294   4.319536  -1.550237
O   11.519260   4.615486   0.355212
C   10.052663   3.109110   2.103435
H    0.336390   3.625364  -2.062164
H    1.150900   4.811658   0.637877
H    4.748598   1.906809   2.379430
H    8.768594   0.346122  -0.697687
H    8.513330   6.077813  -1.804670
H   10.358062   3.710043  -3.361917
H   11.185705   1.615716   2.972993
H    9.208333   4.291039   3.576779

