%chk=mol_0636.chk
# wB97XD/Def2SVP opt pop=full gfinput

C 5 H 8 O 1

1 2
C    1.850212   0.005726  -0.092615
C    4.729002   0.036453  -0.029914
C    5.838498  -2.310228   1.263055
O    6.670242  -1.597782   3.765582
C    6.725838   1.001971   3.676613
C    5.713190   2.064356   1.642059
H    1.166018  -1.565865  -1.253153
H    1.112576   1.763228  -0.901947
H    1.040351  -0.207379   1.802289
H    5.458795   0.209268  -1.958361
H    7.498603  -3.000394   0.230093
H    4.488175  -3.871161   1.419090
H    7.534811   1.902104   5.313154
H    5.560614   4.068448   1.296843

