%chk=mol_4267.chk
# wB97XD/Def2SVP opt freq pop=full gfinput

C 4 H 4 N 2 O 1

1 2
C    2.69291902  -1.10307956   0.40679985
C    2.20355916   0.11799996   0.14787994
C    2.97140884   1.30935955   0.09273996
C    2.53324914   2.57473898  -0.16466993
O    3.61797857   3.38905859  -0.11355995
N    4.73543835   2.60173893   0.18059993
N    4.31835842   1.34366953   0.30127990
H    2.04175925  -1.97062933   0.43234983
H    3.75014853  -1.26580954   0.59861976
H    1.13482952   0.20512992  -0.03454999
H    1.58778942   3.04335880  -0.38422987

