%chk=mol_1454.chk
# wB97XD/Def2SVP opt pop=full gfinput

C 7 H 12

1 2
C    1.804197   0.034242   0.018425
C    4.700410   0.010450  -0.052213
C    5.635466   0.292964  -2.773513
C    5.779746  -2.400784   1.189715
C    6.361026  -1.698561   3.934334
C    6.648435   1.103165   3.808781
C    5.749605   2.043021   1.642267
H    1.080810  -0.186686   1.947060
H    1.025082  -1.510061  -1.119871
H    1.051368   1.812890  -0.729850
H    7.703846   0.355760  -2.867300
H    4.923927   2.038240  -3.632451
H    4.999875  -1.293914  -3.942044
H    7.543352  -2.981685   0.260102
H    4.487325  -4.014761   1.076766
H    8.089426  -2.623261   4.588803
H    4.804553  -2.206198   5.198844
H    7.427739   2.226910   5.326836
H    5.702759   4.036115   1.181438

