%chk=mol_5018.chk
# wB97XD/Def2SVP opt freq pop=full gfinput

C 5 H 9 N 1 O 1

1 2
C    2.49259901  -0.42394984  -1.70618927
N    2.24641919   0.20769992  -0.41583985
C    3.25110888   1.25550950  -0.17707993
C    2.68902898   2.60755897  -0.70313972
C    2.99429870   3.29825878   0.64956975
C    3.17665887   1.88769925   1.24392951
O    3.23996878   1.44890940   2.37235928
H    1.72243929  -1.17816961  -1.89481926
H    3.46638870  -0.92413968  -1.72773945
H    2.44725895   0.30363989  -2.52305913
H    2.25348926  -0.51086980   0.31195989
H    4.28024817   1.01948965  -0.46920982
H    1.61993945   2.61762905  -0.95117968
H    3.23606873   3.02414870  -1.55544937
H    3.91306853   3.89056849   0.66655976
H    2.16781926   3.86804843   1.07821953

