%chk=mol_5533.chk
# wB97XD/Def2SVP opt freq pop=full gfinput

C 4 H 7 N 1 O 2

1 2
N    0.98903966   0.05584998   0.04636998
C    2.45295906   0.06700997   0.00641000
C    3.03350878   1.16283965   0.86814970
C    4.39351845   0.60191977   1.20218956
O    4.20773840  -0.81065971   1.31902945
C    3.07382870  -1.16854966   0.63808972
O    2.68084908  -2.31808901   0.51077980
H    0.66150975  -0.84285963  -0.31758988
H    0.61876976   0.77229971  -0.57623976
H    2.81345892   0.13097996  -1.02644968
H    2.45452905   1.28257954   1.79331934
H    3.08072877   2.13561916   0.37049985
H    5.12675810   0.79227972   0.41118985
H    4.77846813   1.00079966   2.14503932

