%chk=mol_2896.chk
# wB97XD/Def2SVP opt freq pop=full gfinput

C 5 H 10 O 2

1 2
C    1.03449965  -0.33793989   0.14250995
C    2.55112910  -0.32104987   0.03733999
C    3.10158873   1.10221958   0.11167996
C    4.62597847   1.11468959   0.01191000
C    5.18492794   2.51787925   0.07197998
O    6.53251791   2.53783917  -0.05945998
O    4.53064823   3.53614855   0.22419992
H    0.66168976  -1.36526942   0.08254997
H    0.57827979   0.23699991  -0.66968977
H    0.70266974   0.08874997   1.09444964
H    2.85103893  -0.78738976  -0.90844965
H    2.97437906  -0.92736965   0.84671968
H    2.78956914   1.57110941   1.05315959
H    2.67390895   1.70676947  -0.69782972
H    4.93642807   0.66345978  -0.93713963
H    5.05664825   0.54068983   0.83994973
H    6.92860699   1.65342939  -0.17230994

