%chk=mol_0482.chk
# wB97XD/Def2SVP opt pop=full gfinput

C 6 H 10

1 2
C    1.907471   0.065007   0.036491
C    4.714356  -0.012227  -0.038645
C    6.186680  -2.064866  -0.178636
C    8.925630  -1.393730  -0.138290
C    8.893807   1.454125  -0.609323
C    6.247718   2.360457   0.112892
H    1.091374  -1.832808  -0.072263
H    1.175655   1.164676  -1.554716
H    1.257783   0.939761   1.794030
H    5.506889  -3.991121  -0.251693
H    9.749721  -1.852763   1.702946
H    9.983479  -2.381735  -1.613618
H    9.234279   1.831730  -2.620975
H   10.372102   2.437709   0.452476
H    5.582289   3.810897  -1.201677
H    6.209980   3.122016   2.036993

