%chk=mol_2268.chk
# wB97XD/Def2SVP opt freq pop=full gfinput

C 6 H 10 O 1

1 2
C    0.92067969  -0.41819984   0.00212000
C    2.38137913  -0.45937982  -0.29273990
C    2.88076878  -0.24136992  -1.69757938
C    3.11413884   0.81422973  -0.64356977
C    4.48637819   1.05500960  -0.08943997
C    5.18157816   2.26679921  -0.66291976
O    4.68766832   3.05063868  -1.46678948
H    0.75649971  -0.11799996   1.04103959
H    0.47962981  -1.40872943  -0.14130995
H    0.39013988   0.28807989  -0.64412975
H    2.89175892  -1.19915950   0.31440988
H    2.16164923  -0.01946999  -2.47934914
H    3.71928859  -0.83994973  -2.03634930
H    2.52988911   1.72775936  -0.70151979
H    5.13794804   0.19208993  -0.26418990
H    4.41700840   1.20656943   0.99375963
H    6.20661783   2.43185925  -0.28598988

