%chk=mol_5020.chk
# wB97XD/Def2SVP opt pop=full gfinput

C 4 H 6 N 2 O 1

1 2
C    1.812739   0.065347  -0.016119
N    4.556413  -0.162384  -0.130864
C    5.755785   1.937706   0.035395
O    4.670609   4.299051   0.257494
N    6.658299   6.040132   0.485376
C    8.862797   4.747597   0.158340
C    8.514709   2.266330  -0.039155
H    0.978916  -1.827497  -0.044295
H    1.074857   1.096929  -1.651753
H    1.192455   0.987854   1.730460
H    6.456400   7.586079  -0.646362
H   10.633867   5.764024   0.073038
H    9.857530   0.770309  -0.302488

