%chk=mol_6327.chk
# wB97XD/Def2SVP opt freq pop=full gfinput

C 4 H 8 N 2 O 1

1 2
O    1.01861966   0.03286999   0.32661989
N    2.31506920   0.15406993  -0.17448993
C    3.00694895   1.34265947   0.28720990
C    4.40707874   1.30561948  -0.30282986
C    5.10010767   0.01061000   0.11036997
N    4.28883839  -1.19546962  -0.11067996
C    3.01510882  -1.02848959  -0.19581993
H    0.46908984   0.10265996  -0.47714984
H    2.47679925   2.23998928  -0.04815998
H    3.04823875   1.35997951   1.38266945
H    4.98935795   2.17035913   0.03295999
H    4.34913826   1.35393953  -1.39767957
H    5.37367773   0.05385998   1.17147958
H    6.03277779  -0.09018996  -0.45544982
H    2.36375904  -1.90832925  -0.32511988

