%chk=mol_2342.chk
# wB97XD/Def2SVP opt pop=full gfinput

C 6 H 12 O 1

1 2
C    2.001560  -0.117806   0.100571
C    4.856218   0.110284   0.044805
C    5.871700   2.234885   1.682688
C    8.523175   1.322544   2.204214
C    8.116109  -1.503069   2.538186
C   10.391717  -3.074301   1.784298
O    5.988108  -2.174810   0.985965
H    1.384130  -1.719443  -1.057755
H    1.100425   1.601429  -0.612819
H    1.320408  -0.480198   2.020231
H    5.499122   0.344554  -1.912384
H    4.819822   2.373099   3.462961
H    5.807733   4.074344   0.744684
H    9.730710   1.715059   0.566597
H    9.383397   2.208032   3.862865
H    7.594904  -1.922777   4.499400
H   10.839318  -2.815390  -0.221948
H    9.991946  -5.088711   2.041736
H   12.054034  -2.578475   2.907060

