%chk=mol_6142.chk
# wB97XD/Def2SVP opt freq pop=full gfinput

C 4 H 6 N 2 O 1

1 2
O    2.03043938  -0.44646981  -1.31183958
C    2.42842889  -0.05202998  -0.00558000
C    2.89049911   1.35523951   0.00878000
C    2.13710928   2.50703907  -0.09290996
N    3.01500893   3.54838872  -0.03453999
N    4.29101849   3.16251898   0.12294995
C    4.21628857   1.82917929   0.12917995
H    1.74355936  -1.37173951  -1.24819946
H    3.22472858  -0.72492975   0.32963988
H    1.57279944  -0.17481995   0.66744977
H    1.07596970   2.66828895  -0.21532993
H    2.81613898   4.54190826  -0.09099997
H    5.12928772   1.25575960   0.22527991

