%chk=mol_6973.chk
# wB97XD/Def2SVP opt freq pop=full gfinput

C 6 H 5 N 1

1 2
C    1.03306961  -0.02829999  -0.11399996
C    2.23047924   0.01172999  -0.04154998
C    3.65991855   0.06692997   0.05011998
N    4.45875835  -0.65303975  -0.93807966
C    4.43159866   0.80360973  -1.02175963
C    5.60861778   1.52971947  -0.64394975
C    6.58874750   2.14613914  -0.32741988
H   -0.03062999  -0.06120998  -0.17211993
H    4.07206821   0.06053998   1.05455959
H    3.85558867  -1.06086969  -1.65176940
H    3.87858868   1.21160960  -1.86193931
H    7.46088743   2.68918896  -0.04511998

