%chk=mol_0623.chk
# wB97XD/Def2SVP opt pop=full gfinput

C 5 H 8 O 1

1 2
C    1.965391   0.009638   0.129238
C    4.492219   0.042349   0.074833
C    6.113906   2.342013   0.115141
C    8.291494   1.442957  -1.507642
O    8.632609  -1.178414  -0.902458
C    6.184412  -2.191893  -0.288334
H    0.918445  -1.750453  -0.004535
H    0.879346   1.741458   0.309121
H    6.754580   2.698019   2.051487
H    5.217383   4.042181  -0.639861
H    7.859994   1.597745  -3.528856
H   10.041513   2.474105  -1.126182
H    5.560954  -3.402905  -1.843522
H    6.372081  -3.304054   1.443278

