%chk=mol_1583.chk
# wB97XD/Def2SVP opt freq pop=full gfinput

C 4 H 7 N 3

1 2
C    1.07405961  -0.84186971  -0.12694995
C    2.23904920   0.05473998   0.25656989
N    1.82745934   1.44402945   0.22478992
C    2.67982888   2.49011898   0.45642984
N    3.96141863   2.51678920   0.35621986
C    2.11946940   3.77193856   0.87526965
N    1.60263932   4.75605822   1.21701956
H    1.37798953  -1.89324927  -0.10294996
H    0.71714973  -0.61075974  -1.13640952
H    0.23346990  -0.71340972   0.56295979
H    3.06334901  -0.11458996  -0.44380984
H    2.58658886  -0.20449993   1.26232958
H    0.86716968   1.60432935   0.52171981
H    4.30109835   1.60920942   0.03702999

