%chk=mol_4061.chk
# wB97XD/Def2SVP opt freq pop=full gfinput

C 4 H 8 N 2 O 1

1 2
C    0.99082959  -0.03134999   0.06626997
C    2.50416899  -0.03821998   0.09165997
C    3.11186862   1.11371958   0.88327968
O    4.29599810   0.55785984   1.47721946
C    4.16277838  -0.79504967   1.46379948
N    5.06275845  -1.54348934   1.97128928
N    3.02638888  -1.16931963   0.82454967
H    0.60982978  -0.90447962  -0.47430980
H    0.61503977   0.86892968  -0.42994985
H    0.57067978  -0.06477997   1.07764959
H    2.90677881  -0.05051998  -0.92823964
H    2.46333909   1.47645950   1.68824935
H    3.38303876   1.95407927   0.23759991
H    4.77695847  -2.51760912   1.87212932
H    3.04400873  -2.06605911   0.35781986

