%chk=mol_4633.chk
# wB97XD/Def2SVP opt freq pop=full gfinput

C 4 H 10 N 2 O 1

1 2
C    1.19149947  -0.58327979   0.49797982
C    2.46297932  -0.23377991  -0.27226990
C    2.68598914  -1.20094955  -1.45148945
O    1.60044932  -1.12476957  -2.37975907
N    2.35962915   1.12053955  -0.79779971
C    2.51476884   2.26951909  -0.09150997
N    3.01332879   2.42749906   1.08023953
H    1.06655955   0.07420997   1.36570954
H    1.22974956  -1.61525929   0.86313969
H    0.29604989  -0.47458979  -0.12437996
H    3.32816887  -0.31666988   0.39440984
H    2.76624918  -2.23368907  -1.09514964
H    3.60484862  -0.94106960  -1.98890924
H    1.79408932  -1.76003933  -3.09181881
H    1.76314926   1.17046964  -1.62332940
H    2.16388917   3.15617895  -0.64815980
H    3.30492878   1.52666950   1.45793951

