%chk=mol_1421.chk
# wB97XD/Def2SVP opt pop=full gfinput

C 7 H 10

1 2
C    1.733786  -0.098247  -0.028214
C    4.567033   0.023546   0.015458
C    5.800873   2.244749   0.028119
C    8.632213   2.460102   0.089913
C   10.088265  -0.050796  -0.107620
C    8.492373  -2.389766   0.005953
C    5.960933  -2.329390   0.066216
H    1.033000  -2.042189  -0.128029
H    0.989857   0.910546  -1.676678
H    0.947452   0.760407   1.682102
H    4.744214   4.005105   0.011093
H    9.237605   3.709381  -1.450308
H    9.167761   3.415416   1.850930
H   11.497699  -0.128029   1.410208
H   11.153617  -0.075854  -1.886684
H    9.464787  -4.196949   0.026570
H    4.904765  -4.089934   0.141106

