%chk=mol_5510.chk
# wB97XD/Def2SVP opt pop=full gfinput

C 5 H 11 N 1 O 1

1 2
N    1.877424   0.000605   0.222648
C    4.647744  -0.004951   0.023527
C    5.529773  -2.571142  -0.980466
C    4.938724  -2.866790  -3.789959
C    5.924594  -0.606659  -5.277060
O    4.945602   1.711204  -4.316323
C    5.610030   2.118099  -1.730271
H    1.253040   1.752948   0.717170
H    1.312320  -1.216095   1.601675
H    5.416919   0.300126   1.922475
H    4.677186  -4.125480   0.091973
H    7.579843  -2.727007  -0.708458
H    5.775608  -4.616658  -4.513970
H    2.886613  -3.011392  -4.043844
H    7.995148  -0.538780  -5.242251
H    5.343843  -0.764073  -7.257002
H    7.671929   2.282184  -1.592189
H    4.819539   3.943972  -1.155832

