%chk=mol_1471.chk
# wB97XD/Def2SVP opt pop=full gfinput

C 5 H 8 N 2

1 2
C    4.427590  -0.954898  -2.651324
C    4.732630   0.101705  -0.001209
N    5.665154   2.672659  -0.011962
C    4.232306   4.819973  -0.047092
C    5.952448   6.768678  -0.012926
N    8.376608   5.855146   0.051363
C    8.144153   3.382818   0.056219
H    3.719340  -2.896157  -2.573354
H    6.233091  -0.965915  -3.662743
H    3.092575   0.176179  -3.756473
H    6.061656  -1.048741   1.092829
H    2.919362   0.092559   0.998134
H    2.190778   4.794840  -0.095771
H    5.575467   8.778685  -0.028762
H    9.689042   2.043380   0.103538

