%chk=mol_0504.chk
# wB97XD/Def2SVP opt pop=full gfinput

C 6 H 8

1 2
C    1.875572   0.103595   0.003685
C    4.677148  -0.049114   0.008428
C    6.144104  -2.121766   0.013341
C    8.877687  -1.366367   0.016403
C    8.700299   1.462157   0.011660
C    6.269280   2.172713   0.007748
H    1.018657  -1.779971  -0.001776
H    1.203340   1.110327  -1.673938
H    1.197330   1.103657   1.682839
H    5.483059  -4.053935   0.014740
H    9.846305  -2.059046  -1.673050
H    9.841392  -2.053924   1.710278
H   10.305508   2.721187   0.012397
H    5.574862   4.090539   0.003477

