%chk=mol_5689.chk
# wB97XD/Def2SVP opt freq pop=full gfinput

C 5 H 7 N 1 O 1

1 2
N    2.88557887  -0.90407962  -2.30874896
C    3.19358873  -0.48789981  -1.27170956
C    3.58515859   0.05633998   0.03302999
C    4.37307835   1.34320951  -0.15205994
C    3.61025858   2.59975910  -0.60354978
C    4.23097849   3.25012875   0.62938976
O    4.66165829   1.96224928   1.13568950
H    4.19815826  -0.67884976   0.56658977
H    2.69287896   0.23342991   0.64452976
H    5.31310844   1.18481958  -0.69829977
H    2.51955891   2.52633905  -0.56986976
H    3.92656875   3.01939893  -1.56136942
H    5.08557796   3.90587854   0.43810984
H    3.52539873   3.73937869   1.30574954

