%chk=mol_0990.chk
# wB97XD/Def2SVP opt pop=full gfinput

C 4 H 9 N 1 O 1

1 2
C    4.047000  -1.611181   2.864844
C    5.448515  -1.159819   0.406045
C    5.035346   1.507170  -0.473169
N    6.909670   3.058389  -0.684345
O    5.983156   5.393486  -1.531736
C    8.059341   7.081465  -1.798944
H    4.333066  -3.553422   3.512982
H    2.015166  -1.299338   2.629044
H    4.711503  -0.325940   4.343441
H    4.734426  -2.433740  -1.059588
H    7.471864  -1.514030   0.655565
H    3.076946   2.070554  -0.926646
H    7.333007   8.921114  -2.395322
H    9.367523   6.381416  -3.239709
H    9.040922   7.306494   0.008088

