%chk=mol_0547.chk
# wB97XD/Def2SVP opt freq pop=full gfinput

C 5 H 5 N 1

1 2
N    1.01164961   0.00384000  -0.00774000
C    2.46999907   0.00000000   0.00000000
C    2.94996905  -0.78258967  -1.15021968
C    3.34139872  -1.42271948  -2.08923936
C    2.95201898   1.36116946   0.00000000
C    3.34929872   2.48306894   0.00000000
H    0.68590975   0.47990984   0.82927966
H    0.68648970  -0.95722961   0.05522998
H    2.80260897  -0.49775982   0.91895968
H    3.68476868  -1.98059928  -2.92945886
H    3.70035863   3.48884869  -0.01082000

