%chk=mol_5232.chk
# wB97XD/Def2SVP opt freq pop=full gfinput

C 4 H 8 N 2 O 1

1 2
C    1.38240945   1.97294927  -0.21269992
N    2.57943892   2.07450914  -0.68741977
N    3.54457879   1.95819926   0.25767991
C    4.92968845   2.08201909  -0.21717992
C    5.19447803   3.45701885  -0.81568968
C    6.62708759   3.60485864  -1.24824953
O    7.51360750   2.78467894  -1.02901959
H    0.52028978   2.05238914  -0.89358968
H    1.15806949   1.81487930   0.85666966
H    3.46431875   1.07269955   0.76618969
H    5.14407825   1.29331946  -0.94855964
H    5.59877825   1.91552925   0.63530976
H    4.98303843   4.24994850  -0.08950996
H    4.57003832   3.62644863  -1.70007932
H    6.85951757   4.54598856  -1.77669930

