%chk=mol_6457.chk
# wB97XD/Def2SVP opt pop=full gfinput

C 5 H 7 N 1 S 1

1 2
C    1.772695   0.160494  -0.010393
C    4.579241   0.001361  -0.002476
N    6.099148   1.969038   0.006935
C    8.594645   1.180304   0.012094
C   10.611757   3.127572   0.022412
C    8.920036  -1.410454   0.005972
S    6.043458  -2.895344  -0.006179
H    1.159989   2.137072   0.004819
H    0.977310  -0.764375   1.660956
H    0.989272  -0.735009  -1.703248
H   12.494378   2.269126   0.050890
H   10.429833   4.337961   1.690152
H   10.469158   4.314188  -1.666115
H   10.662364  -2.474200   0.007937

