%chk=mol_0214.chk
# wB97XD/Def2SVP opt freq pop=full gfinput

C 4 H 6 O 1

1 2
C    0.99999964   0.00000000   0.00000000
C    2.44399905   0.00000000   0.00000000
C    3.63415861   0.00000000   0.00000000
C    5.07815790   0.00000000   0.00000000
O    5.56763792   1.33501947  -0.02458999
H    0.60596979   1.02086961   0.01167999
H    0.60590976  -0.52052981   0.87824970
H    0.60591978  -0.50028980  -0.88992965
H    5.47697783  -0.52467978  -0.87341970
H    5.47627783  -0.48738980   0.89450967
H    5.07593822   1.79586935  -0.72564971

