%chk=mol_5100.chk
# wB97XD/Def2SVP opt pop=full gfinput

C 4 H 10 N 2 O 1

1 2
C    3.257963  -0.663407   1.980735
N    5.763325   0.284857   1.331520
C    5.694727   2.955966   0.446750
C    4.785183   4.791873   2.478697
C    8.389363   3.733173  -0.349580
N   10.269660   2.814615   1.167718
O    8.850192   5.142228  -2.126830
H    3.382194  -2.689175   2.380375
H    1.914803  -0.406499   0.429138
H    2.521140   0.241734   3.686723
H    6.444363  -0.781175  -0.130032
H    4.499835   3.091101  -1.241720
H    5.843695   4.559569   4.243286
H    2.774685   4.533812   2.889637
H    5.045248   6.751557   1.861853
H    9.835571   1.400211   2.386819
H   12.085215   3.142823   0.683646

