%chk=mol_1925.chk
# wB97XD/Def2SVP opt pop=full gfinput

C 6 H 7 N 1

1 2
N    1.888158   0.030236   0.499795
C    4.484585   0.064081  -0.015023
C    5.805220   2.350574  -0.047092
C    8.429539   2.389993  -0.328132
C    9.770338   0.130070  -0.494919
C    8.485759  -2.162432  -0.343836
C    5.860211  -2.189909  -0.062588
H    0.974078   1.613070  -0.082789
H    1.012761  -1.569890  -0.093863
H    4.796390   4.128711   0.144810
H    9.427258   4.182417  -0.386033
H   11.812584   0.155543  -0.700238
H    9.526431  -3.931556  -0.414322
H    4.895317  -3.993218   0.116615

