%chk=mol_5997.chk
# wB97XD/Def2SVP opt freq pop=full gfinput

C 4 H 6 N 2 O 1

1 2
O    0.98036963  -0.05747998  -0.13981995
C    2.36731911  -0.01327999   0.09493996
C    3.03808880  -1.21074951  -0.53774977
C    3.95837855  -0.83431971  -1.43817949
N    4.02694845   0.52579981  -1.51896942
C    3.07201886   1.09821963  -0.72383970
N    2.72196889   2.33528924  -0.64616978
H    0.70078969   0.87730968  -0.10417996
H    2.58796906   0.08373997   1.16108954
H    2.77478909  -2.22898912  -0.29654989
H    4.57464838  -1.46330953  -2.06469917
H    4.46944809   0.98394960  -2.30096912
H    3.30734873   2.88759899  -1.27877951

