%chk=mol_3543.chk
# wB97XD/Def2SVP opt pop=full gfinput

C 7 H 14

1 2
C    5.685732  -1.543094  -2.334530
C    4.738696   0.078707  -0.146718
C    5.716157   2.847099  -0.116275
C    4.735257   4.281874  -2.455850
C    4.623650   4.164484   2.246676
C    8.584912   2.865902   0.142372
C   10.275461   3.933144  -1.413723
H    4.904500  -3.454117  -2.178042
H    7.747102  -1.712168  -2.324987
H    5.096157  -0.781931  -4.164106
H    5.266969  -0.866421   1.623313
H    2.665194   0.081409  -0.197646
H    5.505604   3.521580  -4.220174
H    5.236129   6.291503  -2.373761
H    2.670145   4.170021  -2.580950
H    5.199676   3.202916   3.990232
H    2.552113   4.181926   2.202816
H    5.263719   6.131632   2.378636
H    9.325686   1.884548   1.797262
H    9.737098   4.949533  -3.108108
H   12.283012   3.806211  -1.008981

