%chk=mol_2455.chk
# wB97XD/Def2SVP opt pop=full gfinput

C 6 H 8 O 1

1 2
C    1.980225  -0.008806   0.246458
C    4.501743  -0.040969   0.101516
C    6.186491   2.222526  -0.015817
O    8.338416   1.432998  -1.459813
C    8.658499  -1.224089  -1.008622
C    6.126606  -2.207314  -0.210043
C    5.558043  -4.637747   0.193602
H    0.862660  -1.725906   0.205697
H    0.953858   1.761754   0.377794
H    6.826654   2.780562   1.872832
H    5.310603   3.844005  -0.950967
H    9.325420  -2.103303  -2.757186
H   10.074867  -1.471284   0.479688
H    3.702899  -5.233502   0.825546
H    6.962299  -6.107501  -0.072547

