%chk=mol_5660.chk
# wB97XD/Def2SVP opt freq pop=full gfinput

C 6 H 13 N 1

1 2
C    0.92589968   0.14600994  -0.27187991
C    2.41072917   0.11762996   0.00774000
C    2.71934891  -0.01138000   1.48267949
C    3.30066872  -0.62211978  -0.96575963
C    3.37327862   0.88461965  -0.91143966
C    2.83833885   1.65389931  -2.09870934
N    4.58495855   1.49173939  -0.33212990
H    0.68895972   0.02507999  -1.33318949
H    0.49635983   1.09305954   0.07068997
H    0.42185983  -0.66940975   0.25864992
H    3.77823853  -0.20388992   1.68048942
H    2.15792918  -0.84458971   1.91735923
H    2.43347907   0.90506965   2.00777936
H    2.84776902  -1.08590961  -1.83636928
H    4.13565826  -1.19675958  -0.57973975
H    2.07115912   1.10525966  -2.65210915
H    3.64683867   1.86999941  -2.80532885
H    2.40899897   2.60540915  -1.76912928
H    5.06864834   0.85207969   0.29444990
H    4.33818865   2.30846930   0.22534992

