%chk=mol_0081.chk
# wB97XD/Def2SVP opt freq pop=full gfinput

C 4 H 6 O 1

1 2
O    2.31543899  -0.96877962  -0.29303989
C    2.07755923   0.19557993   0.00086000
C    3.16181874   1.20043957   0.05710998
C    3.52469850   1.97602916  -1.18452966
C    2.85145879   2.67359900  -0.03743999
H    1.05949962   0.54190975   0.24515991
H    3.98516846   0.91155970   0.70286971
H    2.95092893   1.80144930  -2.08828926
H    4.57522821   2.17806911  -1.36261952
H    3.44652867   3.35552859   0.56024975
H    1.82304931   2.98852897  -0.17292993

