%chk=mol_1130.chk
# wB97XD/Def2SVP opt freq pop=full gfinput

C 4 H 5 N 1 O 1

1 2
O    2.42368913  -0.50014979   1.35668945
C    2.34240913   0.02278999   0.03923999
C    2.87828898   1.42356944   0.03397999
C    2.07602930   2.49898911  -0.06769998
C    4.29380846   1.60097945   0.08863997
N    5.44436789   1.75448930   0.09992996
H    2.13064909  -1.42637944   1.31581950
H    1.29422951  -0.01092000  -0.27802992
H    2.91961884  -0.61781979  -0.63650978
H    0.99602968   2.39765930  -0.11889996
H    2.47636914   3.50946856  -0.08429997

