%chk=mol_0587.chk
# wB97XD/Def2SVP opt pop=full gfinput

C 5 H 8 O 1

1 2
C    1.483189   2.602417  -0.213067
C   -1.340024   2.264931   0.362771
C   -1.840499  -0.444917  -0.277733
O   -1.209085  -2.240648   1.639186
C    0.618847  -1.822868  -0.305134
C    2.679329   0.013228   0.317852
H    1.716174   3.058257  -2.221449
H    2.347002   4.122230   0.888682
H   -2.490942   3.555255  -0.771670
H   -1.731556   2.622448   2.365446
H   -3.295569  -0.844575  -1.641794
H    1.014802  -3.259267  -1.690039
H    3.222739  -0.153011   2.310077
H    4.361318  -0.283421  -0.848336

