%chk=mol_2158.chk
# wB97XD/Def2SVP opt pop=full gfinput

C 5 H 6 O 2

1 2
C   -2.448632   1.227925   0.125761
C   -1.925914  -1.490635  -0.287314
O   -0.574156  -2.764934   1.677453
C    0.852380  -2.073370  -0.520393
C    2.165626   0.508034  -0.508544
O    1.876781   2.054642   1.699828
C    0.058619   2.409987  -0.269154
H   -3.806702   1.925480  -1.270331
H   -3.193221   1.598595   2.019342
H   -3.321118  -2.526110  -1.349321
H    1.465936  -3.534808  -1.804726
H    3.714332   0.884335  -1.784997
H    0.077271   4.155546  -1.319331

