%chk=mol_3796.chk
# wB97XD/Def2SVP opt pop=full gfinput

C 5 H 6 O 2

1 2
O    3.765166  -2.176246   0.944050
C    5.473611  -0.850377  -0.402455
O    6.749799  -1.777023  -2.079285
C    5.596878   1.819164   0.402701
C    7.227617   3.388392  -0.736351
C    7.467347   6.023087  -0.064156
C    9.102017   7.581468  -1.200335
H    2.863842  -1.231610   2.239760
H    4.366571   2.464656   1.900498
H    8.445791   2.683903  -2.242349
H    6.264555   6.763576   1.429767
H   10.350918   6.952038  -2.702233
H    9.227363   9.551697  -0.642223

