%chk=mol_1030.chk
# wB97XD/Def2SVP opt freq pop=full gfinput

C 4 H 9 N 1 O 1

1 2
C    1.18658948  -0.11108996  -0.01148000
N    2.64674902  -0.09634996  -0.04296998
C    3.20511866  -0.58387977  -1.30011952
C    3.19300890   0.89369965  -0.97028965
C    4.45931816   1.60368943  -0.62267977
O    5.15608788   1.92729926  -1.81917930
H    0.82858968   0.63390976   0.70615977
H    0.83820969  -1.09216952   0.32654986
H    0.71181977   0.09851997  -0.97753966
H    2.52809906  -0.94866967  -2.06369925
H    4.13529825  -1.13245952  -1.21413958
H    2.50558901   1.53533947  -1.51052952
H    5.11888790   1.00517964   0.01418999
H    4.23391819   2.53668904  -0.09774996
H    5.44422817   1.08528960  -2.20965910

