%chk=mol_6567.chk
# wB97XD/Def2SVP opt freq pop=full gfinput

C 3 H 8 O 3 S 1

1 2
C    1.03235960  -0.09248997   0.07862997
C    2.53663898   0.07233997  -0.09761997
O    2.93441868  -0.56271976  -1.32986951
S    3.03955889   1.81934929   0.08177997
C    2.75545883   2.50037909  -1.53330946
O    2.12507915   2.48472905   0.99246961
O    4.47016859   1.87071919   0.32188988
H    0.69937974   0.25939989   1.05955970
H    0.74752975  -1.14479959  -0.02659999
H    0.48398980   0.46378982  -0.68911976
H    3.05339885  -0.45602983   0.71086973
H    2.24976921  -0.39717984  -1.99944925
H    3.38914871   1.98335934  -2.25577927
H    3.01574898   3.56071854  -1.50473940
H    1.70070946   2.38426900  -1.78768933

