%chk=mol_0306.chk
# wB97XD/Def2SVP opt pop=full gfinput

C 4 H 6 N 2

1 2
C    1.869487   0.114536  -0.009864
C    4.676789   0.032258  -0.000869
N    6.122467   2.013031  -0.011773
N    8.686277   1.173501  -0.001077
C    8.685654  -1.268403   0.014608
C    6.112073  -2.382793   0.016535
H    1.204455   2.070176   0.002305
H    1.149917  -0.859788   1.663564
H    1.162333  -0.834787  -1.702530
H   10.390149  -2.449973   0.025492
H    5.777743  -3.496050  -1.684842
H    5.771451  -3.474809   1.730611

