%chk=mol_6056.chk
# wB97XD/Def2SVP opt freq pop=full gfinput

C 4 H 7 N 1 O 2

1 2
O    0.98657966   0.01781999   0.07258997
C    2.40379930  -0.01440999  -0.00425000
C    3.02122879   1.12996960   0.79301971
N    4.25440836   0.58951974   1.27615952
C    4.24770880  -0.78626972   1.28898942
O    5.12315845  -1.48546946   1.76794934
C    2.97069907  -1.27077949   0.65490979
H    0.64731979  -0.75348973  -0.41493982
H    2.70980883   0.04306998  -1.05540967
H    2.40433908   1.42650950   1.64794934
H    3.21898890   2.01028919   0.17527995
H    4.97538805   1.10483956   1.76408935
H    3.18255877  -2.04484916  -0.08746997
H    2.30613923  -1.67192936   1.42615950

