%chk=mol_6705.chk
# wB97XD/Def2SVP opt pop=full gfinput

C 3 H 5 N 1 O 2 S 1

1 2
O    1.878671  -0.141975   0.703413
S    4.574120   0.038532   0.303925
O    6.339143   0.471827   2.344092
C    5.636184  -2.525732  -1.619703
C    6.537394  -1.202244  -3.947014
C    6.321739   1.308673  -4.044997
N    5.117568   2.329824  -1.880996
H    4.052707  -3.785311  -2.022272
H    7.169527  -3.510091  -0.655074
H    7.409843  -2.266292  -5.462197
H    6.977946   2.543949  -5.538183
H    5.887820   3.942025  -1.152374

