%chk=mol_5940.chk
# wB97XD/Def2SVP opt pop=full gfinput

C 5 H 7 N 1 O 1

1 2
O    1.588844  -0.485981  -0.280511
C    4.134853   0.310633   0.323389
C    6.416527  -1.238375  -0.880272
N    7.933864   1.201053  -0.391589
C    5.478033   2.315519  -1.479126
C    5.479790   1.257348  -4.074363
C    6.118329  -1.157779  -3.668450
H    0.565425   1.022512  -0.061170
H    4.290510   0.697970   2.356054
H    7.109716  -2.956703   0.015326
H    8.236126   1.582835   1.470604
H    5.176319   4.333596  -1.210634
H    5.077354   2.200624  -5.830202
H    6.358985  -2.670164  -5.006130

