%chk=mol_1653.chk
# wB97XD/Def2SVP opt freq pop=full gfinput

C 5 H 8 N 2

1 2
C    1.14964962  -0.01227000  -0.16953994
N    2.59431911   0.01781999  -0.33764988
C    3.26161885  -1.20648944   0.14588994
C    4.57368851  -0.66742975   0.60119981
C    5.68153763  -1.28167951   1.02447963
C    4.39748859   0.78904969   0.49811983
N    3.25316858   1.16448963   0.01700999
H    0.72223973  -0.91971964  -0.60870975
H    0.68953979   0.84201968  -0.67701972
H    0.87155968   0.03059999   0.88903970
H    3.37165856  -1.93057930  -0.66670972
H    2.73173904  -1.65846944   0.99165964
H    5.73085785  -2.36380935   1.07719958
H    6.55920744  -0.72166973   1.32861948
H    5.18806791   1.47112954   0.84115970

