%chk=mol_5629.chk
# wB97XD/Def2SVP opt pop=full gfinput

C 5 H 9 N 1 O 1

1 2
N    4.550101  -0.883088   2.768373
C    4.719100   0.037681   0.184381
C    5.760301   2.640080   0.090178
C    7.888927   3.421519  -1.014443
C    8.184403   6.183014  -0.673291
O    5.893772   7.025548   0.513117
C    4.451666   4.838133   1.245254
H    4.073173  -2.748248   2.737703
H    3.110848   0.009997   3.680563
H    2.848724  -0.009732  -0.701051
H    5.928638  -1.249789  -0.896562
H    9.230613   2.238324  -1.993510
H    9.788215   6.637285   0.549835
H    8.393785   7.164896  -2.479850
H    2.523597   5.061877   0.531996
H    4.417745   4.732195   3.310555

