%chk=mol_3051.chk
# wB97XD/Def2SVP opt pop=full gfinput

C 6 H 8 O 1

1 2
C    0.195983   0.560417  -0.515706
C    2.832680  -0.088912   0.264108
C    4.854045   1.276038  -0.423639
O    7.346254   0.904272   0.143959
C    7.974909  -1.219818   1.685390
C   10.724442  -1.287527   2.059764
C   12.976145  -1.346033   2.366674
H   -0.623005  -1.002254  -1.594419
H    0.121037   2.263041  -1.687998
H   -0.974475   0.878609   1.159120
H    3.018308  -1.758636   1.438913
H    4.697292   2.951242  -1.598708
H    7.367476  -2.968892   0.755645
H    7.035885  -1.056055   3.524963
H   14.970108  -1.386076   2.629441

