%chk=mol_2602.chk
# wB97XD/Def2SVP opt freq pop=full gfinput

C 6 H 8 O 1

1 2
C    0.99999964   0.00000000   0.00000000
C    2.19015908   0.00000000   0.00000000
C    3.63415861   0.00000000   0.00000000
C    4.22520828   1.13364959   0.82180965
C    5.58238792   0.57885975   1.17209947
C    5.27067804  -0.88443971   1.40411949
O    4.15279865  -1.21532953   0.56853980
H   -0.06539997  -0.01025000   0.00247000
H    4.01186848   0.05194998  -1.02842963
H    3.64993858   1.30405962   1.74102926
H    4.27039814   2.07944918   0.27345991
H    6.25956726   0.68776971   0.31629989
H    6.04584789   1.06021965   2.03726935
H    6.11646795  -1.53316939   1.15952957
H    4.97836828  -1.06816959   2.44305921

