%chk=mol_0579.chk
# wB97XD/Def2SVP opt freq pop=full gfinput

C 4 H 8 N 2

1 2
N    0.82858968   0.76883972   0.36553988
N    2.13420916   0.65469974   0.70197976
C    2.92688894   1.17257965  -0.18311994
C    4.42209816   1.13492966   0.00627000
C    4.91897774   2.53896904   0.18960993
C    5.77665806   3.14826870  -0.63903975
H    0.28407991   0.10080996   0.91869962
H    0.46817985   1.68169940   0.65863973
H    2.55293918   1.64736938  -1.10941958
H    4.86286783   0.66062975  -0.87697971
H    4.67425871   0.53461981   0.88651967
H    4.55709791   3.07455873   1.06541955
H    6.17554760   2.65222883  -1.51859939
H    6.10663748   4.16454840  -0.44650981

