%chk=mol_6741.chk
# wB97XD/Def2SVP opt pop=full gfinput

C 5 H 8 N 2

1 2
C    1.789419  -0.004705   0.067841
C    4.655000   0.000775   0.190295
C    5.671011   0.008012   2.872478
C    5.751249   2.111070  -1.336377
N    7.111928   1.347507  -3.216049
N    7.116765  -1.350682  -3.210720
C    5.758846  -2.111655  -1.328062
H    1.111707  -0.002551  -1.890312
H    1.000421   1.669762   0.995073
H    1.007111  -1.685655   0.989064
H    7.742888   0.004309   2.901013
H    5.037140  -1.665019   3.914227
H    5.043263   1.690379   3.902870
H    5.405637   4.103295  -0.867025
H    5.420301  -4.103219  -0.850566

