%chk=mol_5364.chk
# wB97XD/Def2SVP opt freq pop=full gfinput

C 4 H 7 N 1 O 2

1 2
C    3.68465877  -1.06581962   0.47212982
O    2.71689892  -0.02127999   0.45006984
C    3.17465878   1.24759960   0.21614993
C    4.42790842   1.65916944  -0.00905000
C    4.67915821   3.09339881  -0.23955990
N    5.87051773   3.53958869  -0.47321981
O    5.80787802   4.92661810  -0.65332973
H    3.16009879  -2.00718927   0.66110975
H    4.40647840  -0.91169965   1.28102958
H    4.19319868  -1.14991963  -0.49399984
H    2.32532930   1.92403924   0.23752990
H    5.28967762   1.00688958  -0.03782999
H    3.80312872   3.76617861  -0.20357993
H    6.74022722   5.15721798  -0.82471967

