%chk=mol_5742.chk
# wB97XD/Def2SVP opt freq pop=full gfinput

C 5 H 5 N 1 O 1

1 2
N    0.88218963  -0.02201999   0.21169992
C    2.24066901  -0.00391000   0.02465999
C    3.03688884   1.06996953   0.08162997
C    4.50670862   1.02447963  -0.12087996
O    5.15227795   2.06694913  -0.07074997
C    5.21385813  -0.21358991  -0.38363984
C    5.80953789  -1.23403955  -0.60110980
H    0.39458984  -0.75782967  -0.29585987
H    0.42265984   0.88302964   0.13580996
H    2.63799906  -0.99815965  -0.17394993
H    2.64197898   2.05822921   0.29026991
H    6.34892750  -2.13289905  -0.79274970

