%chk=mol_2926.chk
# wB97XD/Def2SVP opt pop=full gfinput

C 6 H 10 O 1

1 2
C    1.856184   0.017045   0.012491
C    4.762110   0.000000   0.000000
C    5.713833  -1.368218   2.382151
C    5.676605  -1.393276  -2.403769
O    8.348470  -1.764040  -2.439145
C    5.672996   2.572238   0.000000
C    6.423746   4.692322   0.000000
H    1.098347   0.974192  -1.663715
H    1.110800   1.007791   1.674581
H    1.093282  -1.909341   0.036018
H    5.000650  -0.461679   4.103125
H    7.781155  -1.354027   2.501544
H    5.090431  -3.341962   2.405678
H    5.157894  -0.359502  -4.123950
H    4.810997  -3.270927  -2.525336
H    9.125279  -0.100874  -2.308300
H    7.088703   6.594048   0.010242

