%chk=mol_1537.chk
# wB97XD/Def2SVP opt freq pop=full gfinput

C 5 H 12 N 2

1 2
C    2.13693929  -0.60861981   1.36858952
C    2.61588883  -0.10020996   0.01011000
N    1.54128945  -0.19377992  -0.97422963
C    3.06647897   1.32821953   0.09874997
C    4.32496834   1.73623931  -0.14330995
C    4.77969790   3.15567875  -0.07299997
N    5.85940790   3.26745868   0.89524966
H    2.94345880  -0.55971980   2.10867929
H    1.81099939  -1.65269935   1.30227947
H    1.29646957  -0.01819999   1.75198936
H    3.44258881  -0.73635972  -0.32829988
H    0.70376974   0.25546989  -0.60904974
H    1.29548955  -1.17371964  -1.10450959
H    2.31456900   2.06322932   0.37592986
H    5.07954788   1.00836957  -0.43395984
H    3.96290874   3.83006859   0.20620991
H    5.14238787   3.46535850  -1.05864966
H    5.49336815   3.03992891   1.81845927
H    6.15920782   4.23917818   0.94315964

