%chk=mol_5540.chk
# wB97XD/Def2SVP opt freq pop=full gfinput

C 5 H 9 N 1 O 1

1 2
N    0.99967963   0.04671998  -0.00887000
C    2.45214915  -0.00660000  -0.01556999
C    2.99471879  -1.28528953   0.63576972
C    3.29171872  -0.91658968   2.09006929
O    4.48271847  -1.53972936   2.53496909
C    3.47430873   0.56229979   2.02401924
C    3.00306869   1.06012952   0.87365967
H    0.62782979  -0.72750968  -0.55617982
H    0.69106972   0.89809966  -0.47472984
H    2.82996893   0.09028997  -1.03860962
H    3.91057849  -1.60700941   0.12029996
H    2.29962897  -2.13077927   0.56911981
H    2.46961904  -1.18351948   2.76125908
H    5.22347832  -1.11815953   2.06801915
H    3.87095857   1.15218961   2.83793902
H    2.98180890   2.11262918   0.62831980

