%chk=mol_4856.chk
# wB97XD/Def2SVP opt freq pop=full gfinput

C 5 H 11 N 1 O 1

1 2
C    2.79975891   1.92181921   0.67534971
C    4.15322828   1.56946945   0.08561997
O    4.85500860   2.78557897  -0.16815995
C    6.12273788   2.70774913  -0.71174973
C    6.76223755   1.57619941  -1.05407953
C    6.77064753   4.06283855  -0.90062964
N    5.96315813   4.92162848  -1.76508939
H    2.22133923   1.01834965   0.88989967
H    2.22986937   2.55007911  -0.01686999
H    2.91893911   2.49361897   1.60102940
H    4.00569868   1.01575959  -0.84826970
H    4.71061850   0.95476961   0.80177969
H    6.33163786   0.58992982  -0.93418962
H    7.76169682   1.61032939  -1.47800946
H    7.77337694   3.97197843  -1.33186948
H    6.88630724   4.54592848   0.07704997
H    5.82477808   4.43856859  -2.65141892
H    5.03403807   4.97639799  -1.34464943

