%chk=mol_3796.chk
# wB97XD/Def2SVP opt freq pop=full gfinput

C 5 H 6 O 2

1 2
O    1.99243927  -1.15161955   0.49956980
C    2.89650893  -0.44999984  -0.21296991
O    3.57183862  -0.94035965  -1.10030961
C    2.96173882   0.96265966   0.21309991
C    3.82468867   1.79305935  -0.38965985
C    3.95154834   3.18727899  -0.03394999
C    4.81657839   4.01193857  -0.63518977
H    1.51547945  -0.65173972   1.18522954
H    2.31068921   1.30423951   1.00569963
H    4.46931839   1.42025948  -1.18659961
H    3.31505871   3.57912874   0.75659972
H    5.47746754   3.67885852  -1.42995954
H    4.88290834   5.05453825  -0.33984986

