%chk=mol_4043.chk
# wB97XD/Def2SVP opt freq pop=full gfinput

C 5 H 7 N 1 O 1

1 2
C    1.03400958   0.00006000  -0.07363997
C    2.52340889  -0.01941999  -0.02443999
C    3.35569859  -0.74905974  -1.04563963
O    2.66986895  -1.40394938  -2.12515903
C    3.33559871   0.76120973  -1.03634965
C    4.50490856   1.46560943  -0.59075975
N    5.44398785   2.03835917  -0.22537991
H    0.64559972   0.71086973   0.66300970
H    0.63444972  -0.98996961   0.16774993
H    0.64991975   0.29732987  -1.05455959
H    2.87482905  -0.06756998   1.00234962
H    4.25118828  -1.24577951  -0.67870969
H    1.85959923  -0.95058966  -2.41101909
H    2.80175900   1.24910951  -1.84389937

