%chk=mol_6159.chk
# wB97XD/Def2SVP opt pop=full gfinput

C 7 H 16

1 2
C    1.906942  -1.594192   2.452997
C    4.398243  -0.721649   3.597301
C    5.201112   1.972723   2.805072
C    3.183546   4.002326   3.371857
C    2.515830   4.316456   6.152740
C    7.806478   2.559464   3.984336
C    8.918771   5.085499   3.176554
H    1.593833  -3.593125   2.886557
H    1.914633  -1.377081   0.399242
H    0.308706  -0.537589   3.223438
H    5.873099  -2.054529   3.001433
H    4.287429  -0.866893   5.661903
H    5.453938   1.950632   0.743456
H    1.450799   3.565894   2.321151
H    3.812088   5.831203   2.630215
H    1.744973   2.574809   6.951414
H    1.078051   5.789460   6.364995
H    4.159117   4.883506   7.269134
H    9.139773   1.072136   3.427264
H    7.697422   2.494571   6.052339
H    8.975972   5.248884   1.115505
H   10.855513   5.263946   3.885315
H    7.835220   6.672887   3.935657

