%chk=mol_5233.chk
# wB97XD/Def2SVP opt freq pop=full gfinput

C 4 H 8 N 2 O 1

1 2
C    1.25140953   0.09266996   0.15369993
N    2.63948894   0.51509982   0.07092997
N    3.69252872  -0.37598985  -0.03358999
C    3.45571876  -1.63983941  -0.11629996
C    2.93126893   1.88478923   0.07526997
C    4.39598846   2.24324918  -0.01171000
O    2.07227921   2.76698899   0.13401994
H    0.58015978   0.93651968   0.33624989
H    1.13517952  -0.61554974   0.97921968
H    0.96691966  -0.37565988  -0.79355967
H    4.30796814  -2.33404899  -0.19301993
H    2.45770907  -2.10482907  -0.12341995
H    4.94953823   1.78783929   0.81378973
H    4.50731802   3.32934880   0.06270998
H    4.80561829   1.91854930  -0.97191966

