%chk=mol_2427.chk
# wB97XD/Def2SVP opt freq pop=full gfinput

C 5 H 10 O 2

1 2
C    1.05639958  -0.05658998   0.07605997
C    2.56553888   0.07693997   0.00178000
C    3.11830878   1.19827950   0.86855966
C    4.49938822   0.68580973   1.20054948
O    5.38462782   0.94510967   0.10963996
C    4.25084877  -0.80544972   1.36269951
O    3.18834877  -1.14158952   0.44903982
H    0.71675974  -0.89762968  -0.53886980
H    0.56110978   0.85494965  -0.27280989
H    0.72817969  -0.26605991   1.10062957
H    2.86407900   0.22226992  -1.04292953
H    2.53199911   1.30007958   1.78944933
H    3.11438870   2.15653920   0.34040987
H    4.92953777   1.14395952   2.09437919
H    5.18143845   0.30706990  -0.59849977
H    5.12512779  -1.41766942   1.12470961
H    3.90025854  -1.04367959   2.37263894

