%chk=mol_5796.chk
# wB97XD/Def2SVP opt freq pop=full gfinput

C 4 H 5 N 1 O 2

1 2
N    1.12410951  -0.03112999   0.26529989
C    2.51459908  -0.04425998   0.17090994
C    3.14495897  -1.40476954   0.32365990
O    2.44617891  -2.41776896   0.31856990
C    3.22642899   1.07279956  -0.04105999
C    4.69303846   1.19878948  -0.19413993
O    5.45728779   0.25596991  -0.32624987
H    0.67402971   0.60843974  -0.38241985
H    0.76061970  -0.98703963   0.17221993
H    4.23336840  -1.45656943   0.45059982
H    2.70662904   2.02338934  -0.11063996
H    5.05750847   2.24016929  -0.19819993

