%chk=mol_4969.chk
# wB97XD/Def2SVP opt freq pop=full gfinput

C 5 H 7 N 1 O 1

1 2
C    1.09557962  -0.00606000  -0.16538994
N    2.51509905  -0.01108000   0.07933997
C    3.26862884  -1.14253950   0.19559993
C    4.54264832  -0.82066971   0.42900982
C    4.71664810   0.67270970   0.48685983
C    3.28654885   1.13733959   0.24122992
O    2.91146898   2.29847908   0.19960992
H    0.72445971   1.01748955  -0.26632991
H    0.58745980  -0.49002981   0.67390972
H    0.88729966  -0.55653983  -1.08756959
H    2.83604884  -2.12898922   0.10178997
H    5.34864807  -1.52683938   0.56147975
H    5.05728817   0.99876964   1.47210944
H    5.37408829   1.03138959  -0.30819988

