%chk=mol_0408.chk
# wB97XD/Def2SVP opt pop=full gfinput

C 4 H 10 N 2

1 2
C    1.971306  -0.958053   0.946942
C    4.356650  -0.511927  -0.617940
C    5.328725  -2.991796  -1.723185
N    3.774123   1.248202  -2.645182
C    5.490901   2.667783  -3.933597
N    7.805079   3.122262  -3.384084
H    1.266173   0.824128   1.726378
H    2.356621  -2.239288   2.523616
H    0.457843  -1.781917  -0.198799
H    5.793352   0.289827   0.638898
H    3.940703  -3.841605  -3.003795
H    5.739042  -4.355951  -0.222345
H    7.068785  -2.691159  -2.801802
H    2.148713   0.868216  -3.591179
H    4.678792   3.509297  -5.660316
H    8.277397   2.255615  -1.728230

