%chk=mol_5009.chk
# wB97XD/Def2SVP opt freq pop=full gfinput

C 4 H 8 N 2 O 1

1 2
C    1.03137958   0.01425999   0.10506996
N    2.44863892   0.06179997  -0.19161993
O    3.10023880   1.10672963   0.48826984
C    4.38089800   1.25984955  -0.13576995
C    5.20035791   0.00175000   0.13112995
N    4.48199797  -1.23656952  -0.22779992
C    3.20494866  -1.08470964  -0.32058987
H    0.58821976   1.01057959   0.01366999
H    0.86143970  -0.35224986   1.12197959
H    0.51329982  -0.64695978  -0.59765977
H    4.87260818   2.13429928   0.30184987
H    4.25293827   1.44670951  -1.20911956
H    5.45448780  -0.05841998   1.19613945
H    6.13839769   0.04683998  -0.43254983
H    2.59011912  -1.96573925  -0.56801981

