%chk=mol_6614.chk
# wB97XD/Def2SVP opt freq pop=full gfinput

C 5 H 6 O 1 S 1

1 2
C    3.02099895  -1.15123951   0.51797980
O    2.28745914   0.04225998   0.28035989
C    3.04641891   1.15929949   0.14875995
C    2.42079902   2.36283898  -0.08325997
S    3.52999878   3.65750861  -0.22140992
C    4.86018848   2.61125922   0.02940999
C    4.46440840   1.30309963   0.21432993
H    2.30435920  -1.97354925   0.60505974
H    3.57784867  -1.09271967   1.45934939
H    3.68940854  -1.37831950  -0.31947988
H    1.35932946   2.54386902  -0.17862993
H    5.86736822   3.00533867   0.02919999
H    5.17362833   0.50456983   0.38662985

