%chk=mol_4034.chk
# wB97XD/Def2SVP opt pop=full gfinput

C 4 H 6 N 2 O 1

1 2
C    1.886759  -0.014097  -0.010053
C    4.680757   0.087381   0.002551
C    6.254313   2.170880  -0.011603
N    8.629019   1.188146   0.002154
O   10.871462   2.545461  -0.019804
C    8.455012  -1.375437   0.024283
N    6.079060  -2.111296   0.027250
H    1.065598   1.883887   0.007937
H    1.198559  -1.032187   1.652868
H    1.213639  -0.994128  -1.701963
H    5.869546   4.173800  -0.033996
H   10.235380   4.258970   0.117503
H   10.098942  -2.586147   0.035073

