%chk=mol_2708.chk
# wB97XD/Def2SVP opt freq pop=full gfinput

C 6 H 12 O 1

1 2
C    1.02006960  -0.14592995  -0.14018995
C    2.53394914  -0.11616995  -0.27074990
C    3.12180877   1.18189955   0.28022990
C    4.60847807   1.20591950   0.12336995
O    5.30368805   1.91510928   1.16011965
C    5.50603771   0.49712980   1.10499954
C    6.87898731   0.07896997   0.71800977
H    0.62510973  -1.09008956  -0.52730978
H    0.56239974   0.67157978  -0.70533973
H    0.71511972  -0.05405998   0.90685964
H    2.81098890  -0.23498991  -1.32567954
H    2.95922899  -0.97429961   0.26503989
H    2.84310889   1.29366958   1.33481956
H    2.69766903   2.03917933  -0.25479990
H    4.93746805   1.34539950  -0.89825970
H    5.06764793  -0.11843996   1.87869930
H    7.37047720   0.82146972   0.08181997
H    6.84244776  -0.86796969   0.17188993
H    7.49430704  -0.06513998   1.61055946

