%chk=mol_2074.chk
# wB97XD/Def2SVP opt freq pop=full gfinput

C 5 H 6 N 2

1 2
N    0.88859969   0.16441993  -0.14919995
C    2.27034926   0.05404998  -0.17057994
C    2.83024883  -1.28415942  -0.35732988
C    2.16523910  -2.35534906  -0.81431973
C    3.05351877   1.13798952   0.00000000
C    4.45951843   1.13798952   0.00000000
N    5.61052799   1.13798952   0.00000000
H    0.53843975   1.01402962   0.28431991
H    0.43361983  -0.66328973   0.23019992
H    3.88556862  -1.42537940  -0.12500995
H    1.12415957  -2.31500912  -1.11546957
H    2.67477894  -3.30714869  -0.93037969
H    2.59181905   2.10970926   0.13362995

