%chk=mol_1196.chk
# wB97XD/Def2SVP opt freq pop=full gfinput

C 6 H 13 N 1

1 2
C    0.30997989  -0.49355981   0.36404985
C    1.78144932  -0.09658996   0.30793989
C    2.09499931   1.33544946  -0.09168997
C    1.16729951   2.25547910  -0.41543984
C    3.56508875   1.70006943  -0.07624997
N    4.29071856   0.93818963  -1.08904958
C    5.70362759   1.28668952  -1.09299958
H    0.21757992  -1.54105937   0.66991973
H   -0.16787992  -0.39062986  -0.61563975
H   -0.24031991   0.11461996   1.08922970
H    2.28164911  -0.77723968  -0.39119986
H    2.21725917  -0.27961990   1.29781950
H    0.10596996   2.03417921  -0.42735982
H    1.44692945   3.26993895  -0.68466973
H    3.96675849   1.48855937   0.92282969
H    3.69509864   2.77544904  -0.25352991
H    3.88845849   1.15085959  -2.00093913
H    6.16988802   1.06680965  -0.12683995
H    5.85650778   2.34477925  -1.33174956
H    6.22364759   0.69309974  -1.85150921

