%chk=mol_0387.chk
# wB97XD/Def2SVP opt pop=full gfinput

C 5 H 9 N 1

1 2
C    3.012261   0.549060  -3.246909
C    4.372921  -0.401057  -1.334411
C    5.621463   1.135461   0.697214
N    8.322070   0.520809   0.807102
C    9.952942   2.440789  -0.322047
C    9.742200   2.167308   2.503868
H    2.164077  -0.694569  -4.641734
H    2.726516   2.566834  -3.472485
H    4.605848  -2.439334  -1.194212
H    4.749826   0.621077   2.506325
H    5.252002   3.158866   0.416099
H    9.096348   4.068221  -1.218628
H   11.645740   1.739890  -1.233689
H   11.294005   1.279364   3.501776
H    8.727927   3.596092   3.559942

