%chk=mol_5631.chk
# wB97XD/Def2SVP opt freq pop=full gfinput

C 4 H 6 N 2 O 1

1 2
N    2.77358890  -0.67532974  -1.28173947
C    2.31119919   0.04380998  -0.09164996
C    2.93538904   1.39780951  -0.00403000
N    2.22050905   2.43415928   0.46031982
O    3.07108903   3.52439880   0.43236983
C    4.28444862   3.13740897  -0.02798999
C    4.25997829   1.79843938  -0.31165990
H    2.25371909  -1.54853940  -1.35347950
H    3.74882841  -0.93790960  -1.15646958
H    2.55807900  -0.53500980   0.80538970
H    1.21999955   0.13406995  -0.13941994
H    5.03139782   3.91393852  -0.09046996
H    5.06897831   1.19798958  -0.69635969

