%chk=mol_4400.chk
# wB97XD/Def2SVP opt freq pop=full gfinput

C 5 H 7 N 1 O 1

1 2
C    0.78764969  -0.00492000   0.00782000
C    2.27776909  -0.11558995   0.06233998
C    3.11296892   0.93291962  -0.04907998
C    4.62252808   0.90355963   0.00335000
O    5.09389782  -0.44434983   0.07543997
C    5.19487810   1.60329938  -1.16875958
N    5.63657761   2.14518929  -2.09777927
H    0.35256985  -0.37456986   0.94132966
H    0.39969984  -0.61065978  -0.81679970
H    0.45350984   1.02683961  -0.13982995
H    2.67101908  -1.11840963   0.21820992
H    2.68058896   1.92555928  -0.17704993
H    4.94748831   1.40847945   0.91933966
H    4.88952827  -0.85539967  -0.78278971

