%chk=mol_6755.chk
# wB97XD/Def2SVP opt freq pop=full gfinput

C 6 H 11 N 1

1 2
C    0.98815960   0.01092000  -0.00310000
C    2.50558901  -0.00014000   0.03452999
C    3.11137891  -1.07459962   0.93826962
N    3.94247866  -0.25404990   1.86596930
C    4.56008816   0.80261970   0.94509965
C    3.08095884   1.21753955   0.73805976
C    3.00568891   0.89272964   2.25244904
H    0.61070979  -0.89696968  -0.48259982
H    0.62591976   0.87453967  -0.57169980
H    0.54535979   0.07071997   0.99648964
H    2.89661884  -0.07817997  -0.98802960
H    3.73920870  -1.77264929   0.37436986
H    2.36267900  -1.65121949   1.49255943
H    5.10229826   0.41343984   0.07591997
H    5.20627832   1.52968943   1.45360947
H    2.85989904   2.22354913   0.38731983
H    3.44650865   1.63324940   2.93217874
H    2.03765917   0.59087974   2.66518879

