%chk=mol_0761.chk
# wB97XD/Def2SVP opt freq pop=full gfinput

C 4 H 8 O 2

1 2
C    0.87060964  -0.25002989  -0.06148998
C    2.36954904   0.02164999  -0.13390994
C    3.03731894  -0.90341967  -1.14445949
O    2.59409904   1.37198949  -0.58034980
C    2.55709910   2.32823920   0.38004985
O    2.35373926   2.16275930   1.57175946
H    0.38989988   0.40877986   0.66849977
H    0.67004979  -1.28657961   0.22611991
H    0.39045987  -0.05315998  -1.02617967
H    2.83491898  -0.14089994   0.84603965
H    2.62845898  -0.74988973  -2.14909935
H    2.90718889  -1.95418930  -0.86853963
H    4.10963869  -0.68898976  -1.20531952
H    2.74254894   3.30805874  -0.08617996

