%chk=mol_4992.chk
# wB97XD/Def2SVP opt pop=full gfinput

C 4 H 8 N 2 O 1

1 2
C    2.337005  -0.090896  -0.484186
N    5.089543  -0.020069  -0.607056
C    6.264008  -2.286134   0.494239
C    8.914557  -1.319085   1.091978
O   10.693091  -1.913083  -0.821710
C    8.390214   1.468884   1.106378
N    6.238288   2.143989   0.168072
H    1.599634  -1.836927  -1.316043
H    1.528826   1.489388  -1.549273
H    1.669327   0.046260   1.470774
H    6.264140  -3.864754  -0.840739
H    5.309885  -2.839483   2.247621
H    9.612866  -1.949649   2.929019
H    9.934082  -1.372092  -2.413256
H    9.799193   2.802823   1.846206

