%chk=mol_4579.chk
# wB97XD/Def2SVP opt freq pop=full gfinput

C 5 H 11 N 1 O 1

1 2
C    1.00504959  -0.06512997   0.85625970
C    2.37416911  -0.05018998   0.20116994
C    3.02734876   1.31940949   0.25247991
O    2.40189910   2.33693933   0.55909979
C    4.49563837   1.37180948  -0.17607994
N    5.17203808   2.56091905   0.36787987
C    5.46262836   2.41194892   1.78986931
H    0.58407974  -1.07499957   0.83690971
H    0.31203988   0.60428977   0.33625990
H    1.06614959   0.26092991   1.90004921
H    2.29291892  -0.35207987  -0.84788966
H    3.02546906  -0.76040971   0.72122973
H    4.51371813   1.41963947  -1.26982951
H    5.01318836   0.45721984   0.13115995
H    4.53141832   3.35385871   0.25544989
H    6.12820768   1.56121945   1.96889925
H    4.55342817   2.28395915   2.38591909
H    5.97385788   3.30965877   2.15109921

