%chk=mol_5654.chk
# wB97XD/Def2SVP opt freq pop=full gfinput

C 4 H 10 N 2 O 1

1 2
N    1.27474952  -0.10467996   0.77808970
C    2.22643900  -0.16292994  -0.33218989
C    3.16276884   1.01817966  -0.20047992
C    4.23473835   0.87961966   0.86030966
O    3.77269864   1.47443938   2.07076931
C    3.43298888   1.90747929  -1.39943957
N    2.53116894   2.36300898  -0.35650989
H    0.54531980  -0.79835969   0.61774975
H    0.80367965   0.80289972   0.70496976
H    1.68011928  -0.13278995  -1.28249955
H    2.78225899  -1.10602963  -0.30152988
H    5.15900803   1.38778949   0.56779981
H    4.48049831  -0.16884995   1.05702960
H    2.87714887   1.10221958   2.20408916
H    2.97232866   1.66171932  -2.34850907
H    4.37865829   2.43064904  -1.47748947
H    2.98663902   2.99890876   0.30712989

