%chk=mol_5029.chk
# wB97XD/Def2SVP opt freq pop=full gfinput

C 4 H 10 N 2 O 1

1 2
C    2.77583885  -1.06052959  -0.75661969
N    2.25085926   0.15775993  -0.15244994
C    3.30684876   1.17998958   0.02961999
C    3.49679875   2.25329924  -1.01993966
N    2.63560915   2.25689936  -2.21649933
C    2.90451884   2.60403895   0.31983986
O    3.76654840   3.33008885   1.21349955
H    1.96413922  -1.78205943  -0.89072967
H    3.53994870  -1.52221942  -0.12278995
H    3.20717883  -0.85837966  -1.74226940
H    1.84728932  -0.07318997   0.75657970
H    4.19972849   0.83291972   0.54696977
H    4.51592827   2.58593893  -1.20036960
H    1.79356933   1.71914947  -1.98560917
H    3.07984900   1.70745945  -2.95132899
H    1.84387922   2.83021879   0.36038986
H    3.73451853   4.28123856   1.00846970

