%chk=mol_6361.chk
# wB97XD/Def2SVP opt pop=full gfinput

C 5 H 7 N 1 O 1

1 2
O    1.110573   2.392431   0.283931
N    3.426017   1.156286  -0.049775
C    5.234088   2.780014   0.210572
C    7.909071   2.034952  -0.040629
C    9.724360   3.776334   0.225236
C   12.377574   3.175911  -0.002211
C   14.205695   4.904500   0.245948
H   -0.102310   1.024931   0.045335
H    4.852722   4.789870   0.629997
H    8.282235   0.061605  -0.443481
H    9.239929   5.734865   0.626520
H   12.896984   1.224807  -0.394424
H   13.806376   6.878320   0.636138
H   16.177870   4.366477   0.058468

