%chk=mol_5737.chk
# wB97XD/Def2SVP opt freq pop=full gfinput

C 4 H 12 N 2 O 1

1 2
N    1.71363938   2.42860913  -1.80209923
C    2.53578925   2.60216880  -0.60966980
C    3.87105846   1.87631929  -0.78468972
C    4.78081799   1.99854922   0.44550982
N    5.99184752   1.16349959   0.27910990
C    5.23127842   3.44514871   0.72677970
O    6.18916750   3.43877888   1.78722930
H    0.82067966   2.90553904  -1.67197931
H    1.48955941   1.44227946  -1.93130934
H    2.00083923   2.20930910   0.26185989
H    2.69386888   3.67245865  -0.45334983
H    4.38994837   2.26666927  -1.67071939
H    3.67387867   0.81286973  -0.97965968
H    4.25964832   1.61826944   1.33210945
H    6.47778749   1.44514942  -0.57545978
H    5.70834780   0.19529994   0.11943995
H    4.39562845   4.07710838   1.03736961
H    5.70482779   3.89522862  -0.15236995
H    6.67003727   2.59096885   1.67165935

