%chk=mol_6287.chk
# wB97XD/Def2SVP opt pop=full gfinput

C 4 H 5 N 1 O 2

1 2
O    2.405602   0.006142   1.390536
C    4.489441   0.176311   0.406404
N    5.920172   2.311570   0.343760
C    5.121045   4.914989   0.847070
C    7.344345   5.748585  -0.843120
O    8.194249   7.759688  -1.541960
C    8.046624   2.956382  -1.297278
H    5.408642  -1.431524  -0.547888
H    5.300757   5.453674   2.829544
H    3.257019   5.380844   0.096754
H    7.819970   2.324552  -3.247646
H    9.874122   2.394699  -0.524512

