%chk=mol_6782.chk
# wB97XD/Def2SVP opt pop=full gfinput

C 5 H 12 N 2

1 2
C    1.971891   0.006293  -0.243605
C    4.830990   0.005575   0.054934
C    5.776005   2.047027   1.847510
N    8.388532   1.290305   2.390579
C    8.368785  -1.495397   2.503188
C    5.879580  -2.387990   1.281915
N    6.178271  -4.482752  -0.491102
H    1.356993  -1.509060  -1.508946
H    1.323753   1.804840  -1.037120
H    1.022002  -0.259365   1.577619
H    5.695106   0.295610  -1.812625
H    4.681985   2.096916   3.603386
H    5.704384   3.929856   0.991350
H    9.494475   1.813835   0.897714
H   10.042212  -2.241026   1.533551
H    8.468014  -2.125318   4.473605
H    4.607247  -3.009408   2.796209
H    7.396842  -3.973565  -1.894847
H    4.496736  -4.842858  -1.355538

