%chk=mol_4540.chk
# wB97XD/Def2SVP opt freq pop=full gfinput

C 4 H 9 N 1 O 2

1 2
C    0.90349966  -0.54527980   0.15217994
C    2.35343909  -0.07535997   0.05842998
C    2.99743867  -0.52125978  -1.25521958
N    2.46117902   1.37172949   0.25629988
O    1.72466946   2.11036921  -0.71021968
C    3.64662862   1.98096919   0.61289978
O    3.94423842   3.13161898   0.30804989
H    0.45463985  -0.22912991   1.10013962
H    0.84490967  -1.63734937   0.09693996
H    0.29228991  -0.13330995  -0.65807974
H    2.91595888  -0.54345977   0.87631965
H    2.48850918  -0.08149997  -2.11965942
H    2.95758891  -1.61074936  -1.35678947
H    4.04837847  -0.21662992  -1.29992950
H    2.23711920   2.94611883  -0.77069974
H    4.30446863   1.32945943   1.21028948

