%chk=mol_2945.chk
# wB97XD/Def2SVP opt freq pop=full gfinput

C 6 H 10 O 1

1 2
C    2.31113911  -0.82186967  -1.06312966
C    2.11865926   0.09298997   0.13750996
C    2.35791898   1.54007936  -0.20710991
C    1.36897945   2.44938922  -0.20927992
O    3.69463873   1.86011934  -0.39670986
C    4.05500841   2.77818894  -1.35084951
C    5.27379799   3.32192874  -1.38501942
H    2.10153937  -1.85920930  -0.78273970
H    3.33864856  -0.77619970  -1.43828940
H    1.63555944  -0.54976976  -1.88086927
H    2.80473900  -0.20542993   0.93927968
H    1.10406959  -0.04766998   0.53004980
H    0.34164986   2.16520905  -0.00894000
H    1.56284940   3.50132871  -0.38706985
H    3.28902864   3.00696874  -2.07841921
H    6.01949739   3.05993891  -0.64241976
H    5.54199791   4.04026842  -2.15103912

