%chk=mol_0166.chk
# wB97XD/Def2SVP opt freq pop=full gfinput

C 4 H 3 N 1

1 2
C    0.99999964   0.00000000   0.00000000
C    2.44399905   0.00000000   0.00000000
C    3.63415861   0.00000000   0.00000000
C    5.17015791  -0.00000000  -0.00000000
N    6.33037758  -0.00001000  -0.00001000
H    0.59641975   1.01428962   0.06905998
H    0.61734974  -0.56947982   0.85288972
H    0.60364974  -0.46126986  -0.90938962

