%chk=mol_3928.chk
# wB97XD/Def2SVP opt freq pop=full gfinput

C 5 H 11 N 1 O 1

1 2
C    1.04995954  -0.05552998   0.07929997
C    2.56074905   0.05767998  -0.00076000
C    3.12786889   1.18440950   0.84866971
C    4.51559830   0.67958975   1.18738949
N    5.45547819   0.95662963   0.09044996
C    4.24328852  -0.81417966   1.36323941
O    3.16685867  -1.15938962   0.47241983
H    0.69891977  -0.89965969  -0.52425981
H    0.56541979   0.85730964  -0.27966991
H    0.72252977  -0.24841991   1.10654950
H    2.85905910   0.17931993  -1.04864967
H    2.55208898   1.29673958   1.77579927
H    3.11097884   2.15108919   0.33373988
H    4.91072798   1.13171959   2.10164905
H    5.16933775   0.43307984  -0.73953974
H    6.37312746   0.58241981   0.33358988
H    5.11068821  -1.44639945   1.15045965
H    3.90722847  -1.02885962   2.38367915

