%chk=mol_3554.chk
# wB97XD/Def2SVP opt pop=full gfinput

C 7 H 12

1 2
C    1.888139  -0.380402   0.035848
C    4.752869  -0.058204   0.027552
C    5.720938   2.707637   0.000000
C    4.797070   4.109323  -2.378031
C    4.796522   4.154449   2.350630
C    8.449702   2.707637   0.000000
C   10.698779   2.707637   0.000000
H    1.409603  -2.393565   0.055974
H    1.018827   0.443972  -1.646367
H    1.027387   0.473717   1.710769
H    5.506435  -1.070700  -1.622481
H    5.514108  -1.041088   1.689037
H    5.356542   3.109507  -4.104920
H    5.603775   6.016321  -2.486804
H    2.738667   4.318705  -2.400973
H    5.346678   3.182601   4.096095
H    2.739234   4.373507   2.363594
H    5.611579   6.059974   2.428714
H   12.712565   2.707637  -0.000000

