%chk=mol_5788.chk
# wB97XD/Def2SVP opt freq pop=full gfinput

C 5 H 9 N 1 O 1

1 2
N    1.22932947  -0.26990989  -0.38583985
C    2.69847894  -0.18966994  -0.31654990
C    3.12780881   1.26526952  -0.04244998
O    2.41611910   1.73059928   1.11462963
C    4.63097811   1.40182948   0.21096992
C    5.42906809   1.11983955  -0.99229962
C    6.08315754   0.89064968  -1.97295916
H    0.96319968  -1.24392951  -0.53859979
H    0.90764970   0.23410992  -1.21414948
H    3.13404894  -0.56630975  -1.24722958
H    3.02598882  -0.83582968   0.50546980
H    2.82633901   1.90440929  -0.88183963
H    1.54232943   1.28886950   1.05392957
H    4.93396807   0.74007970   1.03151965
H    4.84535837   2.41932917   0.56079978
H    6.66848755   0.69100970  -2.84172893

