%chk=mol_6339.chk
# wB97XD/Def2SVP opt freq pop=full gfinput

C 4 H 5 N 1 O 2

1 2
O    1.02822959   0.23456992   0.30881986
N    2.35743904   0.04165998  -0.09448997
C    2.95930910   1.18138957  -0.24424991
C    4.39982843   1.28098953  -0.67393976
C    4.54253864   2.74969888  -0.68110979
C    3.38525891   3.28251886  -0.31870988
O    2.36445928   2.40034914  -0.03304999
H    0.69359970  -0.67800975   0.38106984
H    4.53576851   0.84678972  -1.66695940
H    5.05395794   0.80483973   0.05991998
H    5.43847799   3.29378867  -0.93797964
H    3.12218881   4.32234812  -0.21378991

