%chk=mol_3662.chk
# wB97XD/Def2SVP opt freq pop=full gfinput

C 5 H 8 O 2

1 2
O    2.23197937  -0.37811986   1.39555943
C    2.45580888  -0.01974999   0.04247998
C    2.99270892   1.35949957   0.00326000
C    4.13733864   1.79374933  -0.52819979
C    4.25874853   3.25624895  -0.32880986
O    3.01113892   3.67581868   0.24979991
C    2.25565910   2.49976921   0.60253978
H    1.95625925  -1.31004953   1.39604950
H    1.50792944  -0.07879997  -0.50114983
H    3.15818882  -0.73486972  -0.39801985
H    4.88091850   1.18568957  -1.01912963
H    5.07317781   3.50615883   0.35736987
H    4.40097809   3.78695846  -1.27415955
H    1.24738955   2.60410905   0.19165993
H    2.20373917   2.43210888   1.69335938

