%chk=mol_3610.chk
# wB97XD/Def2SVP opt freq pop=full gfinput

C 7 H 14

1 2
C    2.85235882  -1.01954961  -0.36617988
C    2.34283924   0.27891988   0.24083991
C    3.39226890   1.34974945   0.20054992
C    3.47645855   2.29029918  -0.97368962
C    3.06570888   2.82551885   0.38249984
C    1.63755941   3.27045870   0.56634974
C    4.06345844   3.66068864   1.14410961
H    2.07683921  -1.79055929  -0.32423988
H    3.73038864  -1.38788939   0.17407992
H    3.13843870  -0.87589967  -1.41299939
H    2.05623937   0.10139997   1.28422952
H    1.43719947   0.58183980  -0.29658988
H    4.32482862   0.99804962   0.63264972
H    2.72605896   2.21626902  -1.75330937
H    4.46341848   2.53615904  -1.35314953
H    0.95150965   2.78509903  -0.13459994
H    1.55131948   4.35058832   0.40600985
H    1.30067945   3.04815888   1.58408940
H    5.09204769   3.31640863   0.98835957
H    3.85377860   3.61691856   2.21823907
H    4.00975847   4.70683861   0.82409972

