%chk=mol_3629.chk
# wB97XD/Def2SVP opt freq pop=full gfinput

C 5 H 6 O 2

1 2
O    1.04153967  -0.20377992  -0.49651983
C    2.01073933   0.10489997   0.20048992
C    2.99028897   1.24163949  -0.11079996
C    2.46333909   2.70179892  -0.11400996
C    3.51748872   3.11928868   0.93760967
C    3.78603864   1.61847937   1.14666963
O    4.37802792   0.97754967   1.98804927
H    2.21350908  -0.46776983   1.12251961
H    3.64652872   1.00984967  -0.95742965
H    1.43020940   2.80810905   0.23730992
H    2.55296922   3.21658874  -1.07583952
H    4.38062811   3.65700865   0.53681982
H    3.12150884   3.63463855   1.81479931

