%chk=mol_3281.chk
# wB97XD/Def2SVP opt freq pop=full gfinput

C 5 H 6 O 2

1 2
C    0.99596965  -0.03733999  -0.07474998
C    2.51999903   0.00000000   0.00000000
O    2.90797901  -0.64028978   1.21662951
C    3.09031892  -0.83586967  -1.14859951
O    4.07160854  -0.54251981  -1.82969928
C    3.00201893   1.36116946   0.00000000
C    3.39929867   2.48306894   0.00000000
H    0.62395978   0.41048986  -1.00343966
H    0.54499984   0.49922979   0.76886970
H    0.62290972  -1.06727958  -0.02335999
H    3.86065841  -0.46379983   1.32604945
H    2.59296894  -1.80953932  -1.30360949
H    3.76024842   3.48601866  -0.00562000

