%chk=mol_3765.chk
# wB97XD/Def2SVP opt freq pop=full gfinput

C 7 H 10

1 2
C    0.97630966  -0.20617992   0.08675996
C    2.49347901  -0.10644995   0.05962998
C    2.95714879   1.34705949  -0.03928998
C    4.45594835   1.43825948  -0.05886998
C    5.15968847   1.93683922  -1.08467960
C    6.57822752   1.99711931  -1.04774964
C    7.77721691   2.04701924  -1.02087963
H    0.66683972  -1.25367951   0.15706994
H    0.53898978   0.21670993  -0.82330972
H    0.56333977   0.32872987   0.94791967
H    2.87501907  -0.68118978  -0.79312968
H    2.89873886  -0.57044977   0.96715963
H    2.58566904   1.91579926   0.82154971
H    2.52820921   1.81124926  -0.93582964
H    4.97603798   1.07761967   0.82705969
H    4.66199827   2.30575919  -1.97651923
H    8.84119701   2.08926916  -0.99573964

