%chk=mol_3893.chk
# wB97XD/Def2SVP opt freq pop=full gfinput

C 5 H 9 N 1 O 1

1 2
C    0.91664964   0.01187000  -0.16629994
C    2.38946915  -0.12596996   0.01516999
C    3.22161865  -0.81923968  -1.02710962
C    3.33567882   0.67169976  -0.84470969
N    4.52018833   1.23803949  -0.29668990
C    4.53014803   2.30630922   0.55433983
O    5.55668831   2.80960894   0.99200964
H    0.54813975   0.87382966   0.39826986
H    0.40674984  -0.88239962   0.20460992
H    0.64151973   0.14988995  -1.21687949
H    2.65151906  -0.28801990   1.05499959
H    2.73516893  -1.18281960  -1.92518926
H    4.03405857  -1.44953954  -0.68266976
H    2.90580893   1.28569961  -1.63331950
H    5.43044806   0.88526964  -0.56895983
H    3.52342868   2.67433882   0.81209970

