%chk=mol_6830.chk
# wB97XD/Def2SVP opt freq pop=full gfinput

C 7 H 12

1 2
C    1.71061933  -0.14405994  -0.04079999
C    0.82150972  -1.25325954   0.51394981
C   -0.43222982  -1.53802943  -0.30987990
C   -1.54001939  -0.53303981  -0.16653994
C   -1.43513942   0.76249969   0.16961993
C   -0.17583995   1.56018937   0.35638988
C    0.99650967   1.11830962  -0.51688981
H    2.30048919  -0.53949982  -0.87778968
H    2.43790913   0.12797995   0.73516971
H    1.42194951  -2.16993904   0.57179981
H    0.54045981  -1.01552963   1.54794943
H   -0.83211970  -2.50191903   0.03280999
H   -0.18471994  -1.66475940  -1.37032950
H   -2.54128885  -0.93288970  -0.32045987
H   -2.35853910   1.32934952   0.28439990
H    0.10159996   1.57529938   1.41702938
H   -0.41141984   2.59743905   0.08345997
H    1.73442936   1.92932928  -0.55752975
H    0.65408975   0.97540963  -1.54993951

