%chk=mol_4492.chk
# wB97XD/Def2SVP opt freq pop=full gfinput

C 4 H 6 N 2 O 1

1 2
C    1.01148963  -0.05703998  -0.10645996
C    2.53249907  -0.01676999  -0.00794000
C    3.15185905  -0.85561967  -1.03981960
N    3.61551857  -1.51201940  -1.87756932
C    3.04480886   1.40786958  -0.11847995
N    2.78398895   2.08971930  -1.27325952
O    3.63386869   1.96944928   0.80176973
H    0.55556977   0.60304976   0.63963974
H    0.63641977  -1.07247961   0.06397998
H    0.65544975   0.26294988  -1.09268963
H    2.82698894  -0.39263985   0.97972959
H    2.51278925   1.63313937  -2.13544917
H    3.18518877   3.01746893  -1.35007954

