%chk=mol_6358.chk
# wB97XD/Def2SVP opt pop=full gfinput

C 5 H 10 N 2

1 2
C    1.715002   0.103274  -0.486094
C    4.526499   0.206339  -0.473754
C    6.137320  -1.429748  -2.141872
C    5.060308  -3.296306  -3.950359
N    5.830788   1.279987  -2.683392
C    7.871144   2.805979  -2.210866
N    8.497513   4.757499  -3.525549
H    0.942274   1.804840   0.403022
H    1.058757  -1.535006   0.592543
H    0.928252  -0.016346  -2.395020
H    5.271183   0.756325   1.353101
H    7.980767  -1.997932  -1.454541
H    3.422899  -2.560088  -4.980146
H    4.479256  -5.009437  -2.945006
H    6.489074  -3.831155  -5.349871
H    9.024992   2.260944  -0.558527
H    7.189236   4.918371  -4.949136

