%chk=mol_6262.chk
# wB97XD/Def2SVP opt freq pop=full gfinput

C 4 H 8 N 2 O 1

1 2
O    0.62157977   0.03057999  -0.72037971
C    1.85718930  -0.42961985  -0.18570992
C    2.86179876   0.72401971  -0.12173995
N    2.41951919   1.94818926  -0.11127996
N    4.21144819   0.51208979  -0.06674998
C    4.94964838  -0.63673979  -0.01786999
C    6.28213739  -0.71657974   0.03078999
H    0.80645967   0.30164987  -1.63836932
H    2.23074913  -1.24132955  -0.81447971
H    1.68395936  -0.80228972   0.82767969
H    1.38691950   1.90644920  -0.12887995
H    4.74030828   1.37899947  -0.03085999
H    4.36683846  -1.55453944  -0.01685999
H    6.90935755   0.16877994   0.03382999
H    6.77808762  -1.68153930   0.06787997

