%chk=mol_3615.chk
# wB97XD/Def2SVP opt pop=full gfinput

C 5 H 8 O 2

1 2
O    1.952824   0.108357  -0.235876
C    4.617168  -0.053498   0.031407
C    5.638055   2.022290   1.734277
O    7.989630   1.115241   2.736607
C    7.769363  -1.496002   2.719505
C    9.550222  -2.953566   3.758439
C    5.449479  -2.420059   1.406126
H    1.405144  -1.351494  -1.209557
H    5.495456   0.056427  -1.843125
H    4.352020   2.454187   3.301843
H    5.965922   3.775748   0.686141
H    9.406716  -4.996492   3.746269
H   11.185723  -2.110484   4.663542
H    5.836703  -3.958579   0.080276
H    4.024096  -3.056216   2.764216

