%chk=mol_5013.chk
# wB97XD/Def2SVP opt freq pop=full gfinput

C 5 H 11 N 1 O 1

1 2
C    2.11205912  -0.99231964  -0.41390985
N    1.88307929   0.37612987   0.03224999
C    3.12894869   1.15756953   0.07215998
C    3.45850873   2.07075930  -1.07281959
C    3.05306888   2.65474892   0.24892990
O    4.11797857   3.22733879   1.03596961
C    4.02207851   4.64023829   1.14571953
H    1.15738964  -1.52284944  -0.47376981
H    2.75742888  -1.53326941   0.28555989
H    2.56944919  -1.01370966  -1.40773940
H    1.46107948   0.35225987   0.96115959
H    3.96433854   0.67205977   0.57394981
H    2.75376892   2.14234924  -1.89231932
H    4.49668837   2.15293932  -1.36971939
H    2.05987930   3.08752894   0.32727990
H    4.91514826   5.00930786   1.65619934
H    3.14198875   4.90946817   1.73667932
H    3.96577835   5.09991789   0.15487993

