%chk=mol_6096.chk
# wB97XD/Def2SVP opt pop=full gfinput

C 5 H 5 N 1 O 1

1 2
O    4.103616  -1.545380  -1.176184
C    3.926681   0.409220   0.043785
C    6.035294   2.239647   0.122757
C    6.750517   3.686780  -2.225795
C    5.482681   5.038464  -0.062474
C    6.922048   6.747607   1.473363
N    8.079486   8.115354   2.733905
H    2.225436   0.882011   1.149709
H    7.597322   1.628887   1.306216
H    5.665456   3.358251  -3.934467
H    8.746125   4.008468  -2.572163
H    3.536131   5.607592  -0.370632

