%chk=mol_3448.chk
# wB97XD/Def2SVP opt freq pop=full gfinput

C 5 H 10 O 2

1 2
C    2.35455894   0.12347995  -0.83168972
O    3.68029857   0.62344974  -0.70823973
C    3.68764853   1.97649932  -0.24802992
C    5.13065815   2.44501901  -0.18038993
C    5.23602819   3.88303852   0.27086991
C    6.61845779   4.48007870   0.27790990
O    4.25525856   4.54853868   0.60194981
H    2.40867901  -0.91400969  -1.17185950
H    1.79479933   0.70462978  -1.57068944
H    1.84296930   0.14886995   0.13507994
H    3.21944880   2.02820921   0.74239969
H    3.11324883   2.60298896  -0.94111967
H    5.59793758   2.34909916  -1.16733956
H    5.69698763   1.81418931   0.51384979
H    7.29914713   3.82853842   0.83192968
H    6.59623766   5.45723772   0.76890969
H    6.96773720   4.60266829  -0.75000972

