%chk=mol_4541.chk
# wB97XD/Def2SVP opt freq pop=full gfinput

C 4 H 9 N 1 O 2

1 2
C    0.45879984  -0.57952976  -0.03845998
C    1.92777932  -0.29944989  -0.34513986
C    2.70243907  -1.62390935  -0.48900983
N    4.13012838  -1.39565945  -0.73339975
O    2.02343917   0.40715986  -1.60249949
C    1.85590935   1.75101936  -1.53568947
O    1.60939944   2.41262913  -0.54157978
H   -0.10507996   0.35325986   0.06298998
H    0.35007989  -1.14901960   0.88960969
H   -0.01001000  -1.14209962  -0.85330969
H    2.37667918   0.29297990   0.46283981
H    2.30180907  -2.19913912  -1.33181953
H    2.59320903  -2.22693920   0.41847986
H    4.22813845  -0.80739969  -1.56165934
H    4.58029842  -2.28223920  -0.95622963
H    1.97059929   2.17329907  -2.54630899

