%chk=mol_4423.chk
# wB97XD/Def2SVP opt freq pop=full gfinput

C 5 H 13 N 1 O 1

1 2
C    0.97962964  -0.43175983  -0.11024995
C    2.48435903  -0.65178972  -0.11152996
C    3.24338889   0.67750973  -0.06998997
C    4.75915813   0.47549981  -0.01549999
O    5.19615841  -0.21259992  -1.19074953
C    5.50610781   1.82037926   0.06736997
N    6.95660734   1.59213936  -0.00931000
H    0.45612982  -1.39225948  -0.15358993
H    0.66862977   0.16405994  -0.97467965
H    0.65978974   0.08815997   0.79879969
H    2.76009893  -1.21635962  -1.00892961
H    2.75805902  -1.26398945   0.75523973
H    2.92019892   1.25733960   0.80312973
H    2.98229885   1.25570953  -0.96535969
H    5.02281809  -0.14772993   0.84772968
H    6.14306784   0.02632999  -1.27522945
H    5.25609779   2.34819913   0.99360961
H    5.22394800   2.45579910  -0.77955973
H    7.26161718   1.08856952   0.82377970
H    7.43319702   2.49374890   0.02149999

