%chk=mol_4765.chk
# wB97XD/Def2SVP opt freq pop=full gfinput

C 4 H 8 N 2 O 1

1 2
C    1.35906959   0.25420991   2.02297926
C    1.41975951   0.45265982   0.51686978
N    2.09744930   1.69147944   0.15440993
C    1.34916949   2.85791898   0.03066999
O    0.13892995   2.96662879   0.20070992
N    3.45503879   1.82291925  -0.04602998
C    4.24388838   0.83195972   0.19047993
H    0.84458971  -0.68158978   2.26200914
H    0.81624967   1.07426953   2.50465894
H    2.36069894   0.21639992   2.46210909
H    0.39511985   0.48657981   0.12748995
H    1.90253925  -0.39484984   0.02080999
H    1.97537935   3.72417855  -0.24280991
H    5.32300806   0.96147960   0.00953000
H    3.94055843  -0.15242994   0.57692975

