%chk=mol_4709.chk
# wB97XD/Def2SVP opt freq pop=full gfinput

C 5 H 13 N 1 O 1

1 2
C    0.69074976   2.35036898  -1.03462958
C    1.98677921   1.66435933  -1.43765950
N    3.06622887   2.08067918  -0.54519981
C    4.32568836   1.40070951  -0.87972969
C    5.41126823   1.74373937   0.14833996
O    5.03459835   1.21973956   1.42818952
C    6.00504780   1.53065944   2.42007899
H   -0.11448996   2.06300926  -1.71764934
H    0.79100966   3.44002891  -1.07089961
H    0.39051986   2.06610918  -0.02092999
H    2.22802925   1.93592918  -2.47130919
H    1.84544933   0.57807976  -1.39393950
H    2.83529902   1.84201932   0.42240986
H    4.66159821   1.70971942  -1.87537932
H    4.17030859   0.31512988  -0.88003963
H    5.54601812   2.82982898   0.21578993
H    6.35904741   1.28783941  -0.15992993
H    5.66043758   1.12924957   3.37649870
H    6.12201786   2.61398911   2.51746917
H    6.96495771   1.06798959   2.17196918

