%chk=mol_5869.chk
# wB97XD/Def2SVP opt freq pop=full gfinput

C 4 H 5 N 1 O 2

1 2
N    1.01637959   0.31360987  -0.10943995
C    2.34685922   0.24016990   0.16491994
O    2.85940909  -0.82082969   0.50107980
C    3.15447879   1.47565949  -0.01346999
C    2.62888908   2.71320915   0.01327999
C    4.63202810   1.34613943  -0.15764995
O    5.38328791   2.29863906  -0.34115988
H    0.56547976   1.11843956  -0.51826978
H    0.48339984  -0.54366976  -0.03907999
H    1.57512951   2.90518904   0.17184994
H    3.26288867   3.59101844  -0.09617996
H    5.02026844   0.31559989  -0.09497996

