%chk=mol_3268.chk
# wB97XD/Def2SVP opt freq pop=full gfinput

C 5 H 12 O 2

1 2
C    5.68943834  -2.54200912   0.07824998
C    5.63309813  -1.44588947  -0.96756965
O    6.23931789  -0.27530989  -0.42364985
C    6.18432808   0.82467967  -1.33155954
C    6.57611752   2.09319925  -0.58236974
O    6.97354746   0.61321980  -2.50098920
C    8.36647701   0.49030983  -2.25535917
H    5.24295807  -3.46607876  -0.30071989
H    5.15472794  -2.23782897   0.98437965
H    6.72508717  -2.74367905   0.37147987
H    4.58934832  -1.23966956  -1.22899961
H    6.17229748  -1.76645935  -1.86529934
H    5.14840794   0.95130968  -1.66864932
H    7.55613756   1.98818934  -0.10354996
H    5.86000776   2.30035901   0.22033991
H    6.62002754   2.95304894  -1.25799954
H    8.84047604   0.12160996  -3.17005873
H    8.57559681  -0.22068991  -1.45050943
H    8.80235672   1.46685946  -2.02344918

