%chk=mol_1710.chk
# wB97XD/Def2SVP opt freq pop=full gfinput

C 6 H 13 N 1

1 2
C    1.53108943   0.67491978   0.79631966
N    2.97391891   0.71008974   0.98097962
C    3.63030863   1.36623955  -0.14710994
C    5.12602854   1.38583946   0.09778997
C    5.56691837   2.17134905   1.31072962
C    5.94334793   0.17020994  -0.29283988
C    6.03199816   1.42285955  -1.11717963
H    1.06270969   0.21366991   1.67110932
H    1.25319958   0.08742997  -0.08455997
H    1.11809957   1.68458939   0.69767970
H    3.33105874  -0.24000990   1.06253958
H    3.27442884   2.39657903  -0.25688991
H    3.40148878   0.83196968  -1.07818961
H    6.65432739   2.30081892   1.33886957
H    5.27338839   1.65694940   2.23125911
H    5.11229801   3.16696882   1.30936944
H    5.43415833  -0.68393970  -0.72414970
H    6.79897738  -0.09600996   0.31839988
H    6.94881725   2.00028920  -1.06660950
H    5.58276796   1.41368937  -2.10414934

