%chk=mol_5435.chk
# wB97XD/Def2SVP opt freq pop=full gfinput

C 5 H 9 N 1 O 1

1 2
C    4.32993841  -0.78448969  -0.99497962
O    5.52440786  -0.05193998  -0.75167966
N    5.17752790   1.27434957  -0.45645985
C    6.23591757   2.01995921  -0.28986987
C    7.64446688   1.47394943  -0.40357986
C    5.99505758   3.45786858   0.03033999
C    6.92017746   4.40537834   0.22020991
H    4.60138845  -1.80390942  -1.27955949
H    3.76493859  -0.32915989  -1.81502938
H    3.71772861  -0.82057971  -0.08919997
H    7.76929712   0.98998964  -1.37656951
H    7.80551672   0.73445970   0.38747984
H    8.41405678   2.23909903  -0.31455988
H    4.94207811   3.72102880   0.10628996
H    7.98663712   4.22979832   0.16082993
H    6.61065769   5.42166805   0.44667983

