%chk=mol_4944.chk
# wB97XD/Def2SVP opt pop=full gfinput

C 4 H 7 N 1 O 2

1 2
C    0.473471  -1.043450   0.159852
C    3.277957  -0.465799   0.173779
O    3.602631   2.194237   0.484053
N    6.198320   2.726006   0.571170
C    6.482252   5.135879   0.807688
C    9.089885   6.204443   0.953764
O    9.383662   8.485097   1.140506
H    0.138158  -3.067933  -0.086531
H   -0.475361  -0.017877  -1.366896
H   -0.404685  -0.432048   1.931395
H    4.135004  -1.059021  -1.614620
H    4.199708  -1.464198   1.735543
H    4.929483   6.519064   0.914061
H   10.630012   4.808012   0.883220

