%chk=mol_1382.chk
# wB97XD/Def2SVP opt freq pop=full gfinput

C 6 H 13 N 1

1 2
C    0.80609971  -0.60065973   0.79040968
C    2.12650919  -0.58830976   0.01467999
C    2.27121902  -1.89515924  -0.76756966
N    2.13247919   0.58877981  -0.86395967
C    3.43394852   0.83613968  -1.47858942
C    3.34710884   2.07965922  -2.30977917
C    4.12775850   3.15788889  -2.15564942
H    0.69406974   0.30714989   1.39398944
H    0.76626974  -1.45627940   1.47369945
H   -0.05582998  -0.66862977   0.11661995
H    2.94136906  -0.51275980   0.74554974
H    1.51603937  -1.97403932  -1.55745947
H    2.15125918  -2.75835896  -0.10370996
H    3.25914860  -1.98123920  -1.23053956
H    1.88493919   1.41339946  -0.31619987
H    3.71588874   0.01400999  -2.14427924
H    4.21076822   0.93557966  -0.71132970
H    2.59598899   2.08039927  -3.09740877
H    4.89497805   3.20317888  -1.38989949
H    4.00966835   4.02208853  -2.80188894

