%chk=mol_3790.chk
# wB97XD/Def2SVP opt freq pop=full gfinput

C 5 H 8 O 2

1 2
O    2.18666911  -0.09447997  -0.62747979
C    1.98647928   0.88797963   0.06879997
O    2.92489886   1.73178935   0.56579977
C    4.28261805   1.40054953   0.21063992
C    5.36626768   2.31851912   0.83080971
C    6.24833775   1.06540954   0.98293966
C    4.94815779   0.23982990   0.99511963
H    0.99088961   1.22948945   0.39109987
H    4.40486813   1.31589949  -0.87834966
H    5.07403803   2.77671909   1.78298938
H    5.76452780   3.09331894   0.17084993
H    6.88706732   0.86862969   0.11422996
H    6.85448742   1.01611960   1.89099920
H    5.00029802  -0.71887970   0.47220981
H    4.53188801   0.07803997   1.99640930

