%chk=mol_3927.chk
# wB97XD/Def2SVP opt pop=full gfinput

C 5 H 11 N 1 O 1

1 2
C    1.564278   0.167656  -0.805590
C    4.209478  -0.173741   0.137761
C    4.624651  -0.215108   2.953340
C    4.400605   2.411687   4.147835
N    4.763603   2.285095   6.884915
C    6.127834  -1.439631  -1.568624
O    6.057366   1.249298  -1.244725
H    1.489747   0.254489  -2.873650
H    0.734707   1.918129  -0.080162
H    0.377019  -1.414687  -0.196928
H    6.495953  -0.996301   3.385973
H    3.243904  -1.502200   3.812088
H    2.545045   3.239331   3.754791
H    5.822719   3.682774   3.340374
H    3.351977   1.243704   7.679110
H    4.607738   4.057487   7.623590
H    5.515525  -2.191232  -3.371574
H    7.697497  -2.450578  -0.729774

