%chk=mol_0138.chk
# wB97XD/Def2SVP opt pop=full gfinput

C 5 H 8

1 2
C    1.808657  -0.083129  -0.003420
C    4.681532  -0.035924  -0.009827
C    5.696050   2.666101   0.015363
C    8.474628   2.692331   0.008920
C   10.743679   2.720488   0.003723
H    1.124217  -2.034781  -0.021732
H    1.047853   0.879592  -1.668855
H    1.055903   0.845293   1.684974
H    5.374967  -1.040219  -1.685711
H    5.382942  -1.074215   1.641851
H    5.000367   3.662421   1.693157
H    4.992354   3.696474  -1.638374
H   12.757938   2.745035  -0.000907

