%chk=mol_1977.chk
# wB97XD/Def2SVP opt freq pop=full gfinput

C 6 H 9 N 1

1 2
N    2.55933905  -0.60748976  -1.32058954
C    2.30891919   0.06046998  -0.05346998
C    2.87300897   1.43405950  -0.03707998
C    2.20999908   2.59405899   0.12914996
C    3.14705873   3.68895864   0.12252995
C    4.38862848   3.21183872  -0.03995999
C    4.34599829   1.71561933  -0.16439994
H    2.09747934  -1.51427937  -1.31363940
H    3.55402875  -0.79934973  -1.41153944
H    2.74157882  -0.52644980   0.76460969
H    1.22667956   0.09506997   0.11649995
H    1.14512956   2.71167898   0.25549990
H    2.86880898   4.72625828   0.23317991
H    5.28957796   3.80417871  -0.08509997
H    4.73811865   1.39772952  -1.13480961
H    4.91413832   1.24093950   0.64117974

