%chk=mol_5893.chk
# wB97XD/Def2SVP opt freq pop=full gfinput

C 6 H 13 N 1

1 2
C    0.94663966  -0.01794999   0.04383998
C    2.46236897  -0.04724998   0.02529999
C    3.17831898   1.01820958   0.89978969
C    4.25186872  -0.05918998   1.22885954
C    5.52037764   0.05375998   0.39177987
C    3.14378881  -1.11110950   0.92458963
N    3.65392852  -2.20313907   0.10479996
H    0.53930980  -0.87992972  -0.49449983
H    0.57353979   0.88911968  -0.44328982
H    0.55331981  -0.03972999   1.06522954
H    2.82887888  -0.02467999  -1.01231968
H    2.60572910   1.34112954   1.77848923
H    3.52643871   1.90754926   0.36709988
H    4.53480816  -0.05672998   2.29047918
H    5.30431795   0.11167996  -0.68095976
H    6.17491770  -0.80667973   0.56394976
H    6.07845783   0.95503962   0.66668975
H    2.57159901  -1.42405951   1.80522931
H    4.14612818  -1.91773927  -0.73976970
H    2.92721891  -2.84829879  -0.20536992

