%chk=mol_0837.chk
# wB97XD/Def2SVP opt freq pop=full gfinput

C 6 H 8

1 2
C    0.80360973   0.02464999   0.11114996
C    2.29323936   0.01674999   0.22689991
C    3.08547902   1.00281966  -0.22453992
C    4.58225870   1.00627959  -0.11001996
C    5.18497801   1.05086958  -1.44907951
C    5.68332767   1.08703959  -2.54157925
H    0.47048983  -0.84258968  -0.46704984
H    0.43110985   0.92772961  -0.38254988
H    0.35251987  -0.03108999   1.10652959
H    2.73302889  -0.85605967   0.70481974
H    2.63955903   1.87414932  -0.70086974
H    4.94008780   0.12209995   0.42971987
H    4.89134836   1.88347924   0.46925983
H    6.12218761   1.11726964  -3.51203871

