%chk=mol_3301.chk
# wB97XD/Def2SVP opt pop=full gfinput

C 6 H 10 O 1

1 2
C    1.207932   1.725169   1.070908
O    2.813481   2.178079  -1.035740
C    5.358432   2.799402  -0.288788
C    6.830415   4.305174  -2.189286
C    5.897986   5.559990   0.185458
C    7.689579   6.217652   2.192101
C    9.670523   7.773918   1.964843
H   -0.638274   1.121099   0.368723
H    0.966425   3.460845   2.170086
H    1.986934   0.229640   2.270034
H    6.418795   1.383298   0.752867
H    5.903580   4.787961  -3.951625
H    8.827516   3.898297  -2.387518
H    4.326793   6.864827  -0.008655
H    7.333971   5.381978   4.036833
H   10.114552   8.673446   0.176028
H   10.890378   8.169268   3.564458

