%chk=mol_7097.chk
# wB97XD/Def2SVP opt freq pop=full gfinput

C 7 H 8

1 2
C    1.06008959   0.00233000   0.28138989
C    2.37602901   0.00181000   0.04614998
C    3.23313880  -1.22116947  -0.21692991
C    4.60586834  -0.66692978  -0.50081980
C    4.62531853   0.67082971  -0.39952984
C    3.29636884   1.12926960  -0.04900998
C    3.00569892   2.41947913   0.16255994
H    0.50360978   0.91793966   0.44509983
H    0.50129980  -0.92724961   0.30954990
H    2.86463881  -1.78416944  -1.08011961
H    3.26648879  -1.87310934   0.66275972
H    5.45833778  -1.28167951  -0.75046968
H    5.48326778   1.30894947  -0.55320978
H    2.00891924   2.74603891   0.43533984
H    3.76445866   3.19017863   0.07435998

