%chk=mol_1082.chk
# wB97XD/Def2SVP opt pop=full gfinput

C 4 H 9 N 1 O 1

1 2
N    5.633160  -1.887874  -1.029088
C    4.422337   0.180507   0.318551
C    6.202270   2.370605   0.363073
C    6.492173   4.054049  -1.917883
C    5.177132   5.025198   0.405044
O    6.553778   6.794775   1.924610
H    4.445694  -3.401658  -1.055696
H    7.195831  -2.454509  -0.058884
H    3.966346  -0.401907   2.252875
H    2.646032   0.666242  -0.630998
H    7.866438   1.981831   1.489728
H    5.347793   3.648041  -3.569541
H    8.365345   4.742306  -2.366069
H    3.143994   5.278742   0.294306
H    8.359374   6.747286   1.589033

