%chk=mol_6663.chk
# wB97XD/Def2SVP opt freq pop=full gfinput

C 4 H 6 N 2 S 1

1 2
N    2.28269911  -0.45978981  -1.37730944
C    2.36215925  -0.00804000   0.00903000
C    2.83913898   1.40907943   0.02211999
C    2.04973912   2.54409909   0.08097997
S    3.02985883   3.94967842   0.05705998
C    4.42013836   2.95260882  -0.04113999
N    4.20641851   1.65560937  -0.05156998
H    2.15730906  -1.46906948  -1.38554943
H    3.19388866  -0.28713989  -1.80570936
H    3.06241894  -0.63875973   0.56783980
H    1.37918949  -0.09310997   0.48458982
H    0.97217959   2.60793900   0.12669995
H    5.41561794   3.37467885  -0.09105997

