%chk=mol_4285.chk
# wB97XD/Def2SVP opt pop=full gfinput

C 5 H 11 N 1 O 1

1 2
C    3.679013  -1.193570  -2.535597
C    4.569056  -0.206717   0.015326
C    5.929923   2.303689  -0.215259
N    8.367971   2.152946  -1.578016
C    4.483470   4.695894  -1.062895
O    5.628020   6.167216   0.959943
C    6.349744   3.837183   2.240724
H    2.621504  -2.955721  -2.287230
H    5.270900  -1.585556  -3.795798
H    2.441167   0.169867  -3.476699
H    5.794864  -1.615829   0.909998
H    2.912824  -0.001380   1.243345
H    9.348475   3.820006  -1.547610
H    8.195610   1.701963  -3.443043
H    2.426824   4.628828  -0.841174
H    4.942541   5.455696  -2.930304
H    8.278229   3.925509   2.982914
H    5.044586   3.430439   3.795307

