%chk=mol_7107.chk
# wB97XD/Def2SVP opt freq pop=full gfinput

C 6 H 13 N 1

1 2
C    2.52986884  -0.87322968   1.29017949
C    2.47682905  -0.05788998   0.01664999
C    1.81483936  -0.57327980  -1.03899956
C    3.18137884   1.30645955   0.01700999
C    3.11905885   2.04597926  -1.33689952
C    2.57173896   2.23448920   1.08507955
N    4.60716820   1.10995960   0.31618986
H    3.56281877  -1.09207964   1.57576942
H    2.01901937  -1.83691931   1.18401957
H    2.04039931  -0.34329987   2.11233926
H    1.33627951  -1.54710948  -0.98753965
H    1.73364937  -0.06107998  -1.99102926
H    3.57992864   1.46180952  -2.14297915
H    3.64720869   3.00709867  -1.29383957
H    2.08391929   2.26640916  -1.62435937
H    2.70602894   1.84478927   2.10061932
H    1.49600947   2.36932921   0.92089963
H    3.03579903   3.22820878   1.06281960
H    4.71617842   0.82701969   1.28760946
H    5.09888792   1.99793923   0.23279990

