%chk=mol_7108.chk
# wB97XD/Def2SVP opt freq pop=full gfinput

C 7 H 10

1 2
C    1.06099963   0.00365000   0.16495994
C    2.39409900  -0.00288000   0.06388997
C    3.25188875   1.23128951   0.00715000
C    4.40269852   0.79048967  -0.88275963
C    4.62672853  -0.67301977  -0.51835984
C    3.25607872  -1.15749955  -0.12576996
C    2.93448901  -2.44627905   0.03840999
H    0.47448984  -0.90880966   0.14644994
H    0.51361978   0.93672967   0.25902990
H    3.61353850   1.48052943   1.01164961
H    2.73237896   2.10001922  -0.40723985
H    4.12124872   0.87830967  -1.93979919
H    5.30113792   1.39490938  -0.72669971
H    5.04433823  -1.23057961  -1.36376941
H    5.31228828  -0.75293970   0.33451986
H    1.94346929  -2.75937891   0.34534988
H    3.67034864  -3.22773862  -0.11832996

