%chk=mol_4516.chk
# wB97XD/Def2SVP opt pop=full gfinput

C 4 H 10 N 2 O 1

1 2
C    0.071923  -1.858527   0.535662
C    2.872025  -2.569498   0.419066
C    3.154199  -5.309885  -0.456369
N    4.156358  -0.802302  -1.313001
N    6.794151  -1.185444  -1.326040
C    8.330291   0.203939   0.261028
O    7.606015   1.732293   1.841293
H   -0.178504   0.083790   1.211466
H   -0.944391  -3.106974   1.837513
H   -0.828305  -2.011009  -1.321977
H    3.664462  -2.380904   2.325951
H    2.423706  -5.571366  -2.376916
H    2.111183  -6.583976   0.798560
H    5.133366  -5.910251  -0.435242
H    3.852906   0.999023  -0.641335
H    7.564196  -2.272509  -2.710850
H   10.342452  -0.216109  -0.060169

