%chk=mol_1000.chk
# wB97XD/Def2SVP opt freq pop=full gfinput

C 4 H 11 N 1 O 1

1 2
C    1.11831951  -0.28395990   0.20315993
C    2.62879896  -0.14297995   0.07232998
C    3.06769896   1.31789958  -0.04086998
O    2.69320893   2.02536941   1.14416957
C    4.59280825   1.43661952  -0.21881992
N    4.98878765   2.85312891  -0.19652992
H    0.84098971  -1.34190953   0.24370991
H    0.60695976   0.16852994  -0.65199977
H    0.75133973   0.19431992   1.11678958
H    2.96507883  -0.70060974  -0.80917966
H    3.09241867  -0.60394979   0.95324963
H    2.55797911   1.79698932  -0.88518965
H    3.30599880   2.78961897   1.17554951
H    4.91375828   0.97081959  -1.15581965
H    5.10519791   0.93615967   0.60990977
H    4.60777807   3.32140875  -1.02043962
H    6.00387764   2.91187882  -0.28969988

