%chk=mol_0348.chk
# wB97XD/Def2SVP opt freq pop=full gfinput

C 5 H 7 N 1

1 2
C    0.89589971   0.06324998  -0.00804000
C    2.39830923   0.01229000  -0.00504000
C    3.00351906  -1.36836946  -0.00829000
C    3.13901877   1.13798952   0.00000000
C    4.54501867   1.13798952   0.00000000
N    5.69602823   1.13798952   0.00000000
H    0.51647979   1.09047961  -0.00721000
H    0.49849981  -0.44000983   0.87962967
H    0.50204980  -0.43734986  -0.89852965
H    2.22821927  -2.14118934   0.02178999
H    3.64313865  -1.51585948   0.86820966
H    3.59273863  -1.53092945  -0.91691965
H    2.65876913   2.11073923   0.00252000

