%chk=mol_4418.chk
# wB97XD/Def2SVP opt freq pop=full gfinput

C 5 H 7 N 1 O 1

1 2
C    1.13844955  -0.58062977  -0.18054992
C    2.54720926  -0.01786999  -0.03551999
C    2.57604909   1.51296937   0.04569998
C    3.96313858   2.03039932   0.36061984
O    4.90340805   1.32824957   0.72217971
C    2.14030910   2.13846898  -1.20975959
N    1.79431927   2.65300918  -2.18864918
H    1.16734958  -1.67479944  -0.15907994
H    0.68125975  -0.27826992  -1.12768960
H    0.49456981  -0.24298991   0.63777977
H    3.16306877  -0.37028986  -0.87302971
H    2.98988867  -0.44140983   0.87499964
H    1.92867923   1.84918928   0.86458969
H    4.08006859   3.12898898   0.32719988

