%chk=mol_6366.chk
# wB97XD/Def2SVP opt freq pop=full gfinput

C 5 H 3 N 1 O 1

1 2
O    0.91786969   0.06448998   0.00000000
N    2.31396890  -0.05488998   0.00000000
C    2.83097887   1.12270963   0.00000000
C    4.26259804   1.09446955   0.00000000
C    5.46297789   1.08682966  -0.00000000
C    6.99498749   1.08517957  -0.00000000
C    8.19484711   1.08730948   0.00000000
H    0.62905973  -0.86798972   0.00000000
H    2.28355908   2.07766914  -0.00000000
H    9.25980663   1.08872950   0.00000000

