%chk=mol_4576.chk
# wB97XD/Def2SVP opt freq pop=full gfinput

C 5 H 9 N 1 O 1

1 2
C    1.86589932  -0.90263963   0.63853979
C    3.24414873  -0.30976987   0.37380987
C    3.18295884   1.19556952   0.07245997
O    2.59848881   1.88569927   1.18241954
C    4.56008816   1.80593944  -0.20694992
C    5.12584829   1.32811952  -1.47213948
N    5.57608795   0.93947965  -2.46807909
H    1.94662929  -1.98072922   0.80989969
H    1.20076954  -0.74364972  -0.21612993
H    1.40269947  -0.45654982   1.52407944
H    3.70102859  -0.84713972  -0.46453983
H    3.86839843  -0.48757982   1.25793946
H    2.52372885   1.36789954  -0.78694975
H    3.00823879   1.56103945   2.00335908
H    5.24195766   1.58805943   0.62378973
H    4.47146845   2.89897895  -0.23662992

