%chk=mol_2559.chk
# wB97XD/Def2SVP opt freq pop=full gfinput

C 6 H 8 O 1

1 2
C    0.96316963   0.04992998   0.04299998
C    2.48797917   0.02651999   0.07041997
O    2.94747901   1.24912953  -0.54619980
C    3.81190848   1.15092957  -1.60189939
C    4.26926851   0.00964000  -2.12693930
C    3.85592842  -1.24910951  -1.57773948
C    3.01334882  -1.25223958  -0.53887975
H    0.58657980   0.96490961   0.51393980
H    0.53626978  -0.81092972   0.56828982
H    0.58772981   0.05035998  -0.98715961
H    2.82007885   0.06438997   1.11459959
H    4.08519840   2.13075900  -1.97052932
H    4.95438814   0.01476999  -2.96745872
H    4.23691845  -2.16705918  -2.01152921
H    2.69559908  -2.19227934  -0.09933996

