%chk=mol_2974.chk
# wB97XD/Def2SVP opt pop=full gfinput

C 5 H 6 O 2

1 2
C    1.133666   1.176166   0.042519
C    3.660778   0.054462  -0.522471
C    5.844961   0.974400   0.378777
C    8.286827  -0.249274  -0.270155
O    8.488649  -2.125148  -1.604850
C   10.667712   0.916026   0.800658
O   10.619449   2.791862   2.140077
H   -0.079255  -0.237482   0.941140
H    0.227277   1.790761  -1.711789
H    1.267326   2.807906   1.307237
H    3.667051  -1.603924  -1.741855
H    5.912046   2.622978   1.594872
H   12.413989  -0.079728   0.258704

