%chk=mol_5231.chk
# wB97XD/Def2SVP opt freq pop=full gfinput

C 4 H 6 N 2 O 1

1 2
C    2.13160920   0.61911982  -0.13983995
N    3.32671881   0.56578976  -0.62389976
N    4.29690838   1.03879964   0.19092993
C    5.61519766   1.04738963  -0.17985992
C    6.64995766   1.50112939   0.53370982
C    8.01132679   1.43261945  -0.02447999
O    8.97712708   1.84111929   0.60848975
H    1.28538954   0.25400990  -0.74306971
H    1.89355922   1.01448965   0.86153966
H    4.08179855   1.42587948   1.10976958
H    5.75548792   0.62376976  -1.17328954
H    6.55014753   1.92856920   1.52279949
H    8.11014652   0.99754965  -1.03286958

