%chk=mol_5500.chk
# wB97XD/Def2SVP opt pop=full gfinput

C 5 H 9 N 1 O 1

1 2
N    1.925536   0.058846   0.610589
C    4.667359   0.022431   0.164784
C    5.463180  -2.455170  -1.157590
C    5.234163  -1.877141  -3.919349
O    7.326430  -0.577746  -5.031887
C    5.218082   0.921147  -4.250788
C    5.436818   2.130666  -1.700678
H    1.436192   1.709900   1.473514
H    1.453691  -1.350115   1.835529
H    5.622030   0.243453   1.988597
H    4.286277  -4.064990  -0.604051
H    7.427927  -2.917567  -0.688881
H    4.014874  -3.065778  -5.033758
H    3.986812   1.802629  -5.610276
H    7.395424   2.712154  -1.355576
H    4.240942   3.811937  -1.536801

