%chk=mol_3728.chk
# wB97XD/Def2SVP opt freq pop=full gfinput

C 6 H 6 O 1

1 2
O    1.02427959  -0.06212998  -0.39794987
C    2.39162898  -0.01330999   0.01815999
C    2.92738891   1.43281937   0.00000000
C    2.37513924   2.19867921   1.14188957
C    1.92624927   2.82366872   2.06370926
C    4.37138844   1.43281937   0.00000000
C    5.56154823   1.43281937   0.00000000
H    0.72842968  -0.98240966  -0.29065987
H    2.95740891  -0.64548975  -0.67624974
H    2.46501899  -0.45690984   1.01853967
H    2.56985927   1.91533923  -0.91921961
H    1.52533948   3.38029861   2.87968898
H    6.62737751   1.44057953   0.00305000

