%chk=mol_4798.chk
# wB97XD/Def2SVP opt freq pop=full gfinput

C 4 H 6 N 2 O 1

1 2
C   -0.54806983   1.18326962   0.39188984
C    0.29265988   0.09037996  -0.18712993
N    1.57987952   0.10923996  -0.06760998
O    2.10712910  -1.02842963  -0.70239973
C    3.53450871  -0.99969959  -0.58758980
C    4.11433840  -2.18408918  -1.23244965
N    4.59104824  -3.11520886  -1.73813939
H   -1.26414943   0.74553972   1.09198964
H   -1.10095966   1.66934931  -0.41593987
H    0.06961998   1.92054927   0.91029966
H   -0.23561992  -0.72064978  -0.71904975
H    3.80802846  -0.97867960   0.47330981
H    3.91249871  -0.08934996  -1.06620955

