%chk=mol_5399.chk
# wB97XD/Def2SVP opt pop=full gfinput

C 4 H 10 N 2 O 1

1 2
C    2.316162   5.181402  -1.573783
O    4.932355   4.597004  -1.762699
C    5.564790   2.425898  -0.270609
C    8.383146   1.849173  -0.569771
N    9.985861   3.892439   0.432709
N   10.187098   3.982919   2.988167
C   12.148218   5.242176   3.717526
H    1.935684   6.847291  -2.734698
H    1.808317   5.609369   0.384314
H    1.172310   3.609963  -2.280200
H    4.466444   0.802661  -0.942161
H    5.088598   2.775441   1.714435
H    8.826532   1.651791  -2.583161
H    8.859622   0.058298   0.354702
H    9.218329   5.545231  -0.242244
H   12.526371   5.460968   5.749586
H   13.515132   6.119028   2.405924

