%chk=mol_6600.chk
# wB97XD/Def2SVP opt pop=full gfinput

C 4 H 6 N 2 S 1

1 2
C    5.668233  -2.428771   0.990935
N    4.836225  -0.173590  -0.303811
C    6.164381   2.009818  -0.157792
N    5.026861   4.209138  -0.343590
C    6.757547   6.152552  -0.175178
C    9.232767   5.422909   0.142296
S    9.401747   2.195484   0.226975
H    4.276960  -3.933144   0.706701
H    5.840142  -2.103851   3.027473
H    7.473168  -3.115043   0.248726
H    2.940282   0.119147  -0.238937
H    6.102870   8.086913  -0.299711
H   10.895197   6.593368   0.316038

