%chk=mol_4336.chk
# wB97XD/Def2SVP opt pop=full gfinput

C 5 H 9 N 1 O 1

1 2
C    2.880906  -0.808406  -1.115808
C    5.485365  -0.433163   0.039325
C    6.013940   2.306411   0.536815
C    7.922733   3.596130  -0.524305
C    8.312357   6.298741   0.089856
N   10.326466   7.352490  -1.105811
O    6.974733   7.508430   1.532379
H    2.528208  -2.820586  -1.443165
H    2.719070   0.173212  -2.930890
H    1.394731  -0.096508   0.136873
H    6.913128  -1.247181  -1.221708
H    5.599334  -1.468261   1.829368
H    4.758822   3.260893   1.862231
H    9.210714   2.706088  -1.839818
H   11.473132   6.410574  -2.301913
H   10.683548   9.196541  -0.752054

