%chk=mol_5747.chk
# wB97XD/Def2SVP opt freq pop=full gfinput

C 5 H 9 N 1 O 1

1 2
N    0.41429985  -0.14035994  -0.02273999
C    1.86959922  -0.01397999   0.03437999
C    2.40637898   1.39172959  -0.12569995
C    1.64447939   2.50024915  -0.18186994
O    3.78486848   1.41268945  -0.30173990
C    4.55100822   2.38696909   0.28805989
C    5.86954784   2.46016908   0.08997996
H    0.16875994  -1.11994958   0.10674996
H    0.11056996   0.09987996  -0.96524966
H    2.29958916  -0.64898974  -0.74934971
H    2.21576929  -0.40825984   0.99711967
H    0.56776983   2.45095921  -0.05739998
H    2.07060933   3.48058867  -0.35775986
H    4.01963854   3.06927872   0.93667966
H    6.37539768   1.74906933  -0.55215979
H    6.46216774   3.23011875   0.57036978

