%chk=mol_6606.chk
# wB97XD/Def2SVP opt freq pop=full gfinput

C 4 H 8 N 2 S 1

1 2
C    2.55733895  -1.05345964   0.39914986
N    2.45862889   0.16504994  -0.37059987
C    3.38440871   1.17957950  -0.38341984
S    3.09654903   2.47748899  -1.40293944
N    4.46093798   0.98010963   0.47274980
C    5.81725788   1.27709949   0.11815996
C    5.11881828   2.03508925   1.18722951
H    1.64802933  -1.63767934   0.24347991
H    2.66661906  -0.80990964   1.45882952
H    3.42732882  -1.62116945   0.06015998
H    1.67811930   0.27913988  -1.00689960
H    5.97400761   1.73684931  -0.84811968
H    6.51126719   0.49440980   0.39362985
H    5.31643820   1.79224932   2.22155929
H    4.78004837   3.04214883   0.98987967

