%chk=mol_5878.chk
# wB97XD/Def2SVP opt freq pop=full gfinput

C 4 H 5 N 1 O 2

1 2
N    1.76129937  -0.62351978   1.08440959
C    2.64104915  -0.31302989   0.07844997
O    2.91129899  -1.14081955  -0.78609967
C    3.21286893   1.12424958   0.14012994
O    2.92034888   1.74310935   1.39632952
C    4.66849804   1.14365947  -0.07537998
C    5.85675812   1.16567957  -0.24554990
H    1.39930940   0.11106996   1.68192947
H    1.29165947  -1.51794946   1.04922962
H    2.70134902   1.70503926  -0.63445979
H    3.53391886   1.33987951   2.03619933
H    6.91114712   1.18041956  -0.40498984

