%chk=mol_2533.chk
# wB97XD/Def2SVP opt pop=full gfinput

C 5 H 6 O 2

1 2
C    2.048784   0.120980   0.381914
C    4.398489  -0.232153  -0.472583
O    5.161088  -2.649679  -1.202603
C    7.661800  -2.362403  -2.282147
C    8.565203   0.254489  -1.759430
O    7.477778   2.265271  -3.193864
C    6.352957   1.696124  -0.787751
H    1.383809   1.977504   0.936359
H    0.741453  -1.451990   0.519750
H    8.897984  -3.770287  -1.407128
H    7.548020  -2.738137  -4.313810
H   10.400807   0.451890  -0.905103
H    6.644863   3.003550   0.758215

