%chk=mol_5377.chk
# wB97XD/Def2SVP opt freq pop=full gfinput

C 5 H 11 N 1 O 1

1 2
C    3.70049858  -0.60677981   1.27261949
O    3.28514886   0.67212975   1.73544943
C    3.16502881   1.64044940   0.67896974
C    2.32504916   2.82753873   1.22528958
N    2.89798903   3.45863867   2.42614913
C    4.53560829   2.08445930   0.23581992
C    5.00605774   1.97608924  -1.01525962
H    3.66272855  -1.30254948   2.11552906
H    4.72992849  -0.57399982   0.90426964
H    3.02974868  -0.97530967   0.49043980
H    2.60480905   1.19530964  -0.15355994
H    1.33272946   2.44814920   1.49708951
H    2.19255900   3.58978868   0.44981983
H    3.15050864   2.70346904   3.06874895
H    2.17852926   4.00668859   2.89247870
H    5.16677809   2.52494907   1.00486958
H    4.41289806   1.54722941  -1.81597924
H    6.00568771   2.32209921  -1.25894952

