%chk=mol_6350.chk
# wB97XD/Def2SVP opt freq pop=full gfinput

C 4 H 8 N 2 O 1

1 2
O    0.70160973   1.60216939  -0.24593990
N    1.97788930   1.32346952  -0.75122970
C    2.85082912   1.53264952   0.18142994
C    4.36079836   1.30233955  -0.08632997
C    5.13478804   2.39337921  -0.85855973
C    6.25029802   2.13918924   0.16400994
N    5.21487808   1.63571942   1.09491956
H    0.12987995   1.43796945  -1.01929963
H    2.55674911   1.87027931   1.19202948
H    4.55638838   0.29111987  -0.46932983
H    4.69216824   3.39437890  -0.80254966
H    5.37986803   2.16419935  -1.89888930
H    6.97591734   1.37632954  -0.14181995
H    6.78724766   3.02605891   0.51065981
H    5.50238800   0.83039963   1.64994931

