%chk=mol_7123.chk
# wB97XD/Def2SVP opt pop=full gfinput

C 6 H 15 N 1

1 2
C    1.860227   0.071961   0.016535
C    4.764850  -0.162309   0.011697
C    5.576733  -1.597140   2.405735
C    5.561936  -1.684332  -2.333075
C    5.900216   2.543647  -0.042387
C    8.790949   2.683789  -0.053271
N    9.607500   5.320600  -0.092956
H    1.188014   1.062158  -1.672691
H    1.198672   1.124104   1.672219
H    0.956447  -1.790364   0.053895
H    5.115867  -0.520261   4.112025
H    7.609643  -1.976635   2.419643
H    4.614201  -3.425903   2.537864
H    5.090998  -0.670475  -4.074854
H    4.598252  -3.516270  -2.392337
H    7.594658  -2.064715  -2.345320
H    5.190416   3.597944   1.599237
H    5.178266   3.534336  -1.718045
H    9.571123   1.724734  -1.710618
H    9.575733   1.786887   1.635615
H    8.951482   6.177647  -1.688489
H   11.529748   5.391162  -0.194434

