%chk=mol_7119.chk
# wB97XD/Def2SVP opt pop=full gfinput

C 7 H 8

1 2
C    1.783637   0.115198  -0.012000
C    4.586611   0.064855  -0.004441
C    6.197773   2.042529   0.005820
C    8.783504   1.121779   0.010299
C    8.779025  -1.418901   0.003005
C    6.149981  -2.204309  -0.006520
C    5.364460  -4.603656  -0.015401
H    1.067109   2.056684  -0.004611
H    1.029447  -0.839908   1.660918
H    1.039009  -0.823769  -1.698278
H    5.692894   4.018276   0.010110
H   10.427906   2.326744   0.018236
H   10.400334  -2.650605   0.003968
H    3.372386  -5.083344  -0.022223
H    6.698928  -6.160224  -0.016025

