%chk=mol_2355.chk
# wB97XD/Def2SVP opt pop=full gfinput

C 6 H 10 O 1

1 2
C    1.719405  -0.043728   0.281305
C    4.583323  -0.010715  -0.039250
C    5.336227   0.045221  -2.831414
C    5.943510   2.068173   1.569285
C    7.797312  -0.020144   2.410686
O    9.882058  -0.015666   3.360481
C    5.985008  -2.114585   1.496588
H    1.180134  -0.083167   2.279010
H    0.894615  -1.711166  -0.625386
H    0.861734   1.637504  -0.568033
H    7.392684   0.070430  -3.068122
H    4.575688   1.728551  -3.765412
H    4.610195  -1.620384  -3.822349
H    4.851607   2.840523   3.147018
H    6.816998   3.610095   0.509451
H    6.889016  -3.601478   0.385523
H    4.909565  -2.962732   3.046938

