%chk=mol_1206.chk
# wB97XD/Def2SVP opt freq pop=full gfinput

C 5 H 10 N 2

1 2
C    0.74545974   0.97794962  -0.76616967
C    2.23647904   0.89353967  -0.82144964
C    3.05757880   1.55849946   0.00815000
C    4.55417824   1.45970953  -0.03643999
C    5.11936808   2.82321882  -0.34345987
N    5.80869818   3.47044849   0.54428983
N    6.24745750   4.66902828   0.09987996
H    0.35686988   1.32532942  -1.72811937
H    0.39771986   1.66497934   0.01133000
H    0.32450989  -0.01130000  -0.56200981
H    2.65005922   0.23810990  -1.58475947
H    2.64057899   2.20332909   0.78004974
H    4.89399815   0.77031970  -0.81614971
H    4.93030787   1.10670960   0.92897969
H    4.92534828   3.22827864  -1.35421944
H    6.94559765   5.03259802   0.75446969
H    5.49259806   5.35957813   0.12316995

