%chk=mol_3656.chk
# wB97XD/Def2SVP opt pop=full gfinput

C 5 H 6 O 2

1 2
O    4.567166  -1.144758  -2.454622
C    4.379762  -0.051249  -0.009033
C    5.434569   2.544422   0.014834
C    4.114066   4.788585   0.151273
O    5.711452   6.795606   0.149742
C    8.089313   5.850762  -0.014683
C    8.028332   3.255337  -0.103784
H    3.811975  -2.813594  -2.345868
H    5.413555  -1.251773   1.322657
H    2.386384  -0.039571   0.548228
H    2.126074   5.253023   0.254981
H    9.590096   7.235780  -0.054726
H    9.645691   2.016943  -0.252241

