%chk=mol_2518.chk
# wB97XD/Def2SVP opt pop=full gfinput

C 6 H 8 O 1

1 2
C    2.079908  -0.050399   0.119695
C    4.593338  -0.034128   0.064100
O    6.144766  -2.146521   0.184929
C    8.524309  -0.717661  -0.000265
C    8.287262   1.361283  -2.134880
C    6.235832   2.217782  -0.155506
C    8.410397   1.664168   1.800399
H    1.061270  -1.822395   0.276996
H    0.991180   1.680496   0.006879
H   10.211362  -1.901537   0.038078
H    7.588933   0.708232  -3.968104
H    9.907135   2.616534  -2.424651
H    5.413763   4.098665  -0.273632
H   10.040039   2.940508   1.792424
H    7.832121   1.303061   3.752203

