%chk=mol_4656.chk
# wB97XD/Def2SVP opt freq pop=full gfinput

C 5 H 11 N 1 O 1

1 2
C    2.71717906  -0.92215967  -0.50172979
C    2.26759911   0.44862986  -0.02015999
N    3.38645864   1.39189947  -0.12351995
C    3.22978878   2.38130927  -1.19415963
C    3.00203872   2.75880885   0.25160992
C    3.98169851   3.60145879   1.00869966
O    5.32149839   3.30877876   0.62200975
H    1.89465928  -1.63917935  -0.41589984
H    3.55277872  -1.29766953   0.09787997
H    3.03156877  -0.89216965  -1.55065942
H    1.96117926   0.36683986   1.03103960
H    1.38252950   0.75818974  -0.58909976
H    2.37354922   2.31106925  -1.85327923
H    4.14432859   2.70363879  -1.67904949
H    1.98395920   2.93840885   0.57524979
H    3.89020848   3.40914869   2.08305907
H    3.79387856   4.66440868   0.83118969
H    5.33013821   2.34159899   0.47155982

