%chk=mol_6657.chk
# wB97XD/Def2SVP opt freq pop=full gfinput

C 4 H 2 N 2 S 1

1 2
N    0.83318967   0.25642991  -0.00745000
C    1.98874927   0.14462994  -0.00339000
C    3.40543866   0.02224999   0.00154000
C    4.30322838   1.06892955   0.00332000
N    5.63968801   0.71133977   0.00820000
C    5.73539782  -0.60025978   0.01007000
S    4.25392866  -1.46574938   0.00619000
H    4.04261875   2.12163901   0.00121000
H    6.69044733  -1.11043966   0.01382000

