%chk=mol_4203.chk
# wB97XD/Def2SVP opt freq pop=full gfinput

C 4 H 5 N 1 O 2

1 2
C    0.95291966  -0.08882996  -0.00585000
C    2.41096926   0.09550996  -0.00319000
C    3.26173878   1.17214966  -0.00347000
O    2.87430882   2.44899893  -0.00663000
N    4.56216860   0.77391970  -0.00019000
C    4.46332836  -0.53785980   0.00192000
O    3.19155884  -1.03093958   0.00026000
H    0.43166983   0.87316966   0.00299000
H    0.63620973  -0.65451974   0.87572962
H    0.63762975  -0.63763976  -0.89851964
H    3.69205856   2.97616911  -0.00600000
H    5.26150799  -1.26741958   0.00479000

