%chk=mol_1485.chk
# wB97XD/Def2SVP opt pop=full gfinput

C 5 H 12 N 2

1 2
C    4.627958  -0.917216  -2.725646
C    4.798052   0.055123  -0.013209
N    6.116496  -1.817142   1.564126
C    6.205766   2.590134   0.032541
C    4.908318   4.937061  -1.146629
C    6.028132   6.354374   1.135593
N    5.981853   3.924375   2.514016
H    3.586473   0.414549  -3.920804
H    3.641880  -2.736550  -2.806659
H    6.506157  -1.163618  -3.565497
H    2.877788   0.292737   0.729774
H    7.815548  -2.253857   0.774920
H    5.099331  -3.450999   1.589184
H    8.181948   2.398554  -0.590880
H    2.836932   4.870543  -1.167416
H    5.593589   5.522120  -3.004570
H    7.933221   7.104822   0.823618
H    4.837264   7.836146   1.942979
H    7.442989   3.583998   3.718471

