%chk=mol_5658.chk
# wB97XD/Def2SVP opt freq pop=full gfinput

C 4 H 4 N 2 O 1

1 2
N    0.99999964   0.00000000   0.00000000
C    2.15100908   0.00000000   0.00000000
C    3.59500861   0.00000000   0.00000000
C    4.18886852  -1.22443962   0.64887977
O    4.47085810  -0.84876966   2.00438929
N    4.61037827   0.55891979   2.04436922
C    4.11596870   1.01118970   0.94295967
H    3.99112868   0.16246994  -1.00564969
H    5.14060783  -1.50069940   0.18061993
H    3.53203869  -2.10021925   0.64337975
H    4.06495857   2.08399916   0.70597970

