%chk=mol_5065.chk
# wB97XD/Def2SVP opt freq pop=full gfinput

C 5 H 9 N 1 O 1

1 2
C    0.94667965   0.40896985   0.14265995
N    2.39572906   0.46759981   0.14832996
C    3.14347887  -0.77078968   0.00709000
C    3.24763894  -1.11268961  -1.44863939
C    2.79101896  -2.24374914  -2.00353932
C    3.06367874   1.66559947   0.28812990
O    4.28013802   1.81339931   0.30645987
H    0.51308984   1.41257942   0.16425994
H    0.61687976  -0.13866995   1.02993965
H    0.60282981  -0.10795996  -0.75691974
H    2.63854909  -1.55322933   0.58420974
H    4.15182877  -0.65160978   0.41765985
H    3.75491858  -0.38294986  -2.07682920
H    2.29296923  -3.00927901  -1.41709948
H    2.91693878  -2.42763925  -3.06650901
H    2.38392901   2.52740908   0.38952985

