%chk=mol_4365.chk
# wB97XD/Def2SVP opt freq pop=full gfinput

C 5 H 11 N 1 O 1

1 2
C    0.82857966  -1.18095946   0.06891997
C    2.25811934  -0.78201967  -0.30497989
C    2.91763902  -1.90260923  -1.11012959
C    2.29016924   0.52773982  -1.10666955
N    1.78616941   1.65746939  -0.35161987
C    2.57305908   2.35859919   0.52416980
O    3.75608850   2.14940906   0.74857974
H    0.36453986  -0.42910984   0.71529973
H    0.82068968  -2.13164902   0.61308980
H    0.20225993  -1.29640949  -0.82221973
H    2.82678890  -0.65039980   0.62437975
H    2.38952899  -2.07813931  -2.05383921
H    2.92014885  -2.84043908  -0.54421979
H    3.95770860  -1.65243936  -1.34512949
H    1.67817938   0.44701985  -2.01149917
H    3.31726861   0.75315976  -1.41517949
H    0.80318969   1.88746929  -0.41076985
H    2.01099920   3.16159892   1.02619958

