%chk=mol_5990.chk
# wB97XD/Def2SVP opt freq pop=full gfinput

C 4 H 5 N 1 O 2

1 2
O    1.00061965  -0.12408996  -0.00589000
C    2.31671906   0.02436999   0.00029000
C    3.12526870   1.13792956   0.00356000
C    4.46734858   0.68060976   0.01018000
C    4.44183826  -0.69634974   0.01077000
O    5.44531775  -1.56404948   0.01601999
N    3.12480879  -1.08148968   0.00469000
H    0.61251974   0.76969975  -0.00817000
H    2.79842877   2.16875911   0.00148000
H    5.36322784   1.28702950   0.01412999
H    5.09570837  -2.47051907   0.01488999
H    2.77370906  -2.02673912   0.00350000

