%chk=mol_7040.chk
# wB97XD/Def2SVP opt freq pop=full gfinput

C 6 H 11 N 1

1 2
C    2.23911929   3.16707873   1.56931937
C    2.80043888   1.97077930   1.34954941
C    3.16276884   1.45087945  -0.01425999
C    4.65084839   1.11315966  -0.15501995
C    5.53157806   2.32230902  -0.02135999
C    6.36463785   2.53120899   1.21773958
N    6.98204756   2.13077927  -0.04211999
H    1.99146926   3.48794889   2.57631898
H    2.01032925   3.84865856   0.75590968
H    3.00319910   1.31750941   2.19579935
H    2.87641883   2.17193913  -0.79010969
H    2.57716894   0.54189980  -0.19830993
H    4.81060839   0.67652977  -1.14888954
H    4.92833853   0.34194985   0.57510984
H    5.16392803   3.18498874  -0.56405979
H    6.34987783   1.77718937   1.99490929
H    6.55021763   3.54309845   1.55379939
H    7.44541740   2.92443871  -0.48876983

