%chk=mol_4966.chk
# wB97XD/Def2SVP opt freq pop=full gfinput

C 5 H 9 N 1 O 1

1 2
C    1.01199961  -0.09188997   0.13607995
N    2.46205926  -0.07731996  -0.03076999
C    3.06655884   1.02952957   0.75195974
C    4.16646862   0.03689998   1.19069946
C    3.10579896  -1.04552960   0.88738966
C    5.46166754   0.02879999   0.35519987
O    6.49853802   0.63676971   0.62879980
H    0.59802973  -1.01162970  -0.29088989
H    0.56661981   0.74847972  -0.40708983
H    0.68773979  -0.02879999   1.18176961
H    2.46815896   1.41531944   1.58751941
H    3.40410876   1.87668931   0.14681993
H    4.40743828   0.10453996   2.25955915
H    3.47670865  -1.95235932   0.39971983
H    2.52057910  -1.34091949   1.76803935
H    5.43106794  -0.60084975  -0.55006981

