%chk=mol_3860.chk
# wB97XD/Def2SVP opt pop=full gfinput

C 5 H 9 N 1 O 1

1 2
C   -2.351859  -0.003118   1.855579
C   -1.150390  -1.906072  -0.001984
C    1.692911  -2.296452   0.477590
N    3.167597  -0.000624  -0.176463
C    1.695783   2.292635   0.484809
C   -1.149048   1.905279   0.003231
O   -1.550275   0.003420  -2.027128
H   -1.637977  -0.005934   3.792397
H   -4.420069  -0.001928   1.870942
H   -2.245618  -3.630712  -0.308989
H    2.029415  -2.802502   2.457022
H    2.392979  -3.864509  -0.678979
H    3.292734   0.001493  -2.109577
H    2.395360   3.863186  -0.666393
H    2.031229   2.791957   2.465639
H   -2.243313   3.632262  -0.297726

