%chk=mol_5844.chk
# wB97XD/Def2SVP opt pop=full gfinput

C 4 H 8 N 2 O 1

1 2
N    2.484083  -0.215618   1.347072
C    3.968973   0.370197  -0.692169
O    3.606089  -0.709044  -2.719543
C    6.033707   2.437558  -0.153862
C    5.448855   5.175544  -0.976478
C    6.705976   5.934326   1.525481
N    6.046009   3.405627   2.527830
H    2.655953   0.828229   2.943343
H    1.014027  -1.408621   1.113049
H    7.915779   1.804121  -0.763109
H    3.430722   5.632140  -1.085874
H    6.389542   5.831052  -2.694126
H    8.746087   6.266294   1.383676
H    5.832035   7.518067   2.522728
H    7.413774   2.610619   3.628558

