%chk=mol_3911.chk
# wB97XD/Def2SVP opt pop=full gfinput

C 5 H 9 N 1 O 1

1 2
C    1.790005   0.048963   0.256077
C    4.652014   0.136476  -0.022960
C    6.014394   2.063751   1.718385
C    7.858275  -0.107072   2.289932
N    5.871738  -1.903294   1.514823
C    5.520910   0.065611  -2.880151
O    5.830221  -1.822395  -4.205964
H    1.206647  -0.012264   2.242330
H    0.999023  -1.616812  -0.685612
H    0.927459   1.726378  -0.596209
H    4.915253   2.688986   3.360141
H    6.844872   3.717620   0.799581
H    9.534254  -0.139008   1.073024
H    8.456903  -0.273217   4.260028
H    6.494630  -3.395139   0.453799
H    5.901464   1.949026  -3.690049

