%chk=mol_1947.chk
# wB97XD/Def2SVP opt freq pop=full gfinput

C 5 H 10 N 2

1 2
N    0.98360968   0.05133998  -0.00829000
C    2.44248915   0.01569999   0.03517998
C    3.04579878  -1.06921971   0.94482964
N    3.89686847  -0.25607991   1.86244929
C    4.50438786   0.80193973   0.94094962
C    3.02692890   1.22338951   0.74243969
C    2.95303869   0.88727969   2.25352907
H    0.63114977  -0.82058972  -0.40172985
H    0.67832977   0.79346973  -0.63692975
H    2.83345914  -0.06962997  -0.98577964
H    3.64981842  -1.78383934   0.37512985
H    2.29263926  -1.63009942   1.51022947
H    5.04101801   0.41565984   0.06679998
H    5.15539837   1.52699935   1.44690943
H    2.81233883   2.23457909   0.40079984
H    3.39097857   1.62457943   2.93899894
H    1.98144925   0.58216977   2.65763879

