%chk=mol_1352.chk
# wB97XD/Def2SVP opt freq pop=full gfinput

C 6 H 13 N 1

1 2
C    0.90527964  -0.16737993  -0.35734987
C    2.42144895  -0.24848992  -0.44572982
C    3.08961892   0.76247972   0.48782983
N    4.54625845   0.62774980   0.38107985
C    5.18719816   1.69215930  -0.39018986
C    5.26758814   1.66266930   1.11702967
C    6.54034758   1.29512954   1.79871929
H    0.44685984  -0.91174966  -1.01600957
H    0.54731983   0.82152969  -0.66142976
H    0.56021982  -0.35916987   0.66385978
H    2.72917914  -0.06761998  -1.48247945
H    2.73885894  -1.26544952  -0.18512993
H    2.78965878   0.54868978   1.52149951
H    2.73160911   1.77448928   0.25488991
H    4.56731844   2.44467902  -0.86185968
H    6.05644798   1.39413941  -0.96431965
H    4.69380808   2.38848901   1.68121934
H    7.14531755   0.60155976   1.20492959
H    6.32845736   0.82178968   2.76268888
H    7.13845730   2.19229913   1.98522925

