%chk=mol_5976.chk
# wB97XD/Def2SVP opt pop=full gfinput

C 5 H 7 N 1 O 1

1 2
O    1.680798   0.259970   0.052780
C    4.000550   0.089157   0.047697
C    5.324247  -2.463919   0.077989
C    8.144720  -2.320640   0.057259
C    9.391485  -0.120886  -0.019596
C    8.144058   2.400028  -0.095998
N    5.428937   2.231351   0.036075
H    4.686899  -3.526758  -1.580019
H    4.712448  -3.467251   1.782276
H    9.182784  -4.091125   0.104634
H   11.445882  -0.131582  -0.036188
H    8.768103   3.560169   1.498156
H    8.625201   3.389753  -1.846754
H    4.408032   3.846349   0.005348

