%chk=mol_5040.chk
# wB97XD/Def2SVP opt freq pop=full gfinput

C 4 H 8 N 2 O 1

1 2
C    2.44047904  -0.41690984  -1.68239939
N    2.40166903   0.06340998  -0.30616990
C    3.28545880   1.21634960  -0.09885997
C    3.42924881   1.63075936   1.35617948
O    3.56154871   3.05724883   1.32498956
N    2.85448885   3.51851869   0.18718992
C    2.68356895   2.49200916  -0.57843977
H    1.78088927  -1.28490949  -1.78078926
H    3.44994879  -0.72964972  -1.96919918
H    2.08636928   0.34129986  -2.38715911
H    2.69046903  -0.69701976   0.31057990
H    4.26555872   1.08291960  -0.57027984
H    4.30981827   1.18448949   1.82778943
H    2.54642892   1.38593948   1.95908928
H    2.19473910   2.56161904  -1.55931938

