%chk=mol_5044.chk
# wB97XD/Def2SVP opt freq pop=full gfinput

C 4 H 6 N 2 O 1

1 2
C    0.99700963  -0.01650999   0.00094000
N    2.45068908  -0.03821998   0.00863000
C    3.03427887   1.10166955   0.00769000
N    2.54706907   2.38153911   0.00135000
C    3.56436849   3.26762867   0.00350000
C    4.66822815   2.53037906   0.01144000
O    4.42739820   1.14764953   0.01476000
H    0.62384975  -1.04528964  -0.00724000
H    0.60720974   0.48134983  -0.89320964
H    0.59849977   0.47083983   0.89698970
H    1.57424951   2.63367891  -0.00480000
H    3.43387866   4.33822823  -0.00080000
H    5.70443773   2.81533885   0.01590999

