%chk=mol_0953.chk
# wB97XD/Def2SVP opt pop=full gfinput

C 4 H 9 N 1 O 1

1 2
C    2.115038  -0.265998  -0.002986
C    4.912230  -0.016157  -0.193432
N    6.207939  -0.738675  -2.519081
C    6.080553   1.967243  -1.874004
C    8.479352   3.272930  -1.146724
O   10.284306   2.917756  -3.107333
H    1.393805   0.975080   1.486950
H    1.601675  -2.211584   0.478857
H    1.157930   0.234043  -1.769464
H    5.859247  -0.524380   1.550086
H    4.947530  -1.154056  -3.923601
H    4.907203   3.113343  -3.097110
H    9.276628   2.524731   0.611572
H    8.162408   5.301702  -0.901154
H   10.170979   1.121250  -3.519521

