%chk=mol_3549.chk
# wB97XD/Def2SVP opt freq pop=full gfinput

C 5 H 8 O 2

1 2
O    1.20132959   0.19064993   0.40680984
C    2.56657910   0.00769000   0.04969998
C    2.80756879  -1.43922949  -0.40679985
C    2.51970911  -1.43970942  -1.91848934
C    2.87908888  -0.05401998  -2.35690928
O    1.87293923   0.94262969  -2.14743924
C    2.90381885   0.83211970  -1.15629959
H    0.73806971   0.47274980  -0.40535986
H    3.18736887   0.25825992   0.91499966
H    2.19054914  -2.17186928   0.12219995
H    3.86403847  -1.69363940  -0.25351989
H    3.11980891  -2.19796896  -2.43063927
H    1.46190941  -1.64352942  -2.11375928
H    3.60034871   0.05150998  -3.14876890
H    3.64220881   1.60610938  -1.04130960

