%chk=mol_2079.chk
# wB97XD/Def2SVP opt freq pop=full gfinput

C 5 H 12 N 2

1 2
N    1.51841938   3.16096878   1.77687931
C    2.40055895   3.27966881   0.61652976
C    3.19591880   1.98981917   0.41977984
C    4.06376839   2.02168941  -0.84339970
N    5.08108807   3.07491875  -0.75035971
C    6.43091774   2.57476902  -0.50696981
C    6.01831770   3.06120896  -1.87031925
H    1.03106964   4.04622841   1.91148925
H    2.08436918   3.02309895   2.61376905
H    3.07137895   4.13315868   0.76712972
H    1.79175937   3.48493862  -0.26934990
H    2.50126886   1.14350951   0.33624989
H    3.82517862   1.79481924   1.29862952
H    3.42154884   2.21986914  -1.71083939
H    4.49558830   1.02425957  -0.99531966
H    6.58278751   1.51229942  -0.35853985
H    7.07120705   3.21565890   0.08861997
H    6.37409782   4.03097868  -2.19478917
H    5.87064791   2.33436918  -2.65987921

