%chk=mol_4957.chk
# wB97XD/Def2SVP opt pop=full gfinput

C 5 H 11 N 1 O 1

1 2
C    2.349629  -0.055180  -0.288410
N    5.101637   0.050229  -0.245513
C    6.305071  -1.034285  -2.467434
C    6.310948   1.811473  -2.040337
C    4.770009   3.447465  -3.793550
C    8.728663   3.042591  -1.127618
O   10.497864   3.182488  -3.151251
H    1.554168   1.697617   0.471354
H    1.721314  -1.596422   0.941613
H    1.516524  -0.398430  -2.152190
H    5.130701  -1.816102  -3.951625
H    8.023871  -2.090755  -2.110200
H    3.295342   2.395984  -4.792742
H    5.979566   4.294856  -5.244387
H    3.872238   4.984247  -2.737268
H    9.608143   1.996193   0.428363
H    8.352930   4.964821  -0.461055
H   10.955480   1.453162  -3.562625

