%chk=mol_5449.chk
# wB97XD/Def2SVP opt pop=full gfinput

C 4 H 10 N 2 O 1

1 2
C    7.160059  -1.381484   2.313781
O    8.129659   0.269758   0.426341
N    8.774206   2.569479   1.578583
C    9.711946   4.060984  -0.122152
C   10.650648   6.701233   0.504689
C    9.343599   7.833557   2.806111
N   13.394662   6.558918   0.891989
H    6.612057  -3.155994   1.410189
H    5.493528  -0.547473   3.211004
H    8.612673  -1.775058   3.732247
H    9.955814   3.438243  -2.102018
H   10.274082   7.887736  -1.148859
H    9.716330   6.737270   4.524004
H    7.291433   7.878514   2.531817
H    9.982384   9.774382   3.140026
H   13.740350   5.363496   2.369887
H   14.048186   8.279929   1.458018

