%chk=mol_4942.chk
# wB97XD/Def2SVP opt freq pop=full gfinput

C 4 H 7 N 1 O 2

1 2
C    1.27015948  -0.26081991   0.45539984
C    2.72925901   0.05809998   0.17122993
O    2.96155882  -0.13777995  -1.22395957
N    4.34326839  -0.22938992  -1.45857942
C    4.53578806  -0.37670985  -2.72619915
C    3.07275891   1.49363947   0.52622980
O    2.33626914   2.26136899   1.14296949
H    1.02534962  -0.11165996   1.51193941
H    1.04576957  -1.29880953   0.18735993
H    0.60550982   0.37218988  -0.14371996
H    3.37200856  -0.60824972   0.75877970
H    5.56026793  -0.46181983  -3.11971879
H    3.71162868  -0.41903985  -3.45802855
H    4.09073830   1.81431925   0.24649990

