%chk=mol_1295.chk
# wB97XD/Def2SVP opt pop=full gfinput

C 5 H 4 N 2

1 2
C    2.017698   0.541199   0.215032
C    4.520546   0.181130  -0.052761
C    5.700624  -2.412009  -0.035584
C    6.568121  -3.126892  -2.575980
N    7.240882  -3.716260  -4.578164
C    6.157313   2.318751  -0.264033
N    7.503006   4.043315  -0.398184
H    1.196820   2.426257   0.231302
H    0.710121  -1.029032   0.410845
H    4.344783  -3.825845   0.642809
H    7.288485  -2.450464   1.296088

