%chk=mol_0385.chk
# wB97XD/Def2SVP opt freq pop=full gfinput

C 4 H 10 N 2

1 2
C    1.81943941  -0.70028973  -0.37212986
C    3.31414890  -0.50493979  -0.17964993
C    3.66447878   0.96534961   0.02874999
C    5.14999819   1.12003958   0.26690990
N    5.63075781   1.09352958   1.53663945
N    5.98442793   1.24041951  -0.71193975
H    1.59233940  -1.75989938  -0.52413982
H    1.46063948  -0.14663994  -1.24529958
H    1.26359951  -0.35655987   0.50580978
H    3.84784865  -0.89559966  -1.05467963
H    3.64901853  -1.09658968   0.68108976
H    3.12334871   1.36960948   0.89177966
H    3.37935877   1.55577946  -0.84926969
H    5.11593819   0.55560976   2.22177935
H    6.63544750   0.95315963   1.56619942
H    5.48700809   1.23877954  -1.60862947

