%chk=mol_2428.chk
# wB97XD/Def2SVP opt pop=full gfinput

C 5 H 6 O 2

1 2
C    1.906507   0.067029   0.053668
C    4.708120  -0.048812   0.021070
C    6.157238  -2.097029  -0.158151
C    8.777929  -1.223711  -0.108451
O   10.620487  -2.593215  -0.235403
O    8.811944   1.339268   0.100477
C    6.276574   2.255483   0.196229
H    1.066448  -1.817992  -0.094751
H    1.212618   1.199863  -1.531529
H    1.240152   0.924227   1.814024
H    5.629816  -4.052480  -0.313411
H    5.962181   3.538625  -1.394032
H    5.990035   3.263368   1.978411

