%chk=mol_4234.chk
# wB97XD/Def2SVP opt freq pop=full gfinput

C 5 H 3 N 1 O 1

1 2
C    0.94589961   0.07499997   0.00012000
C    2.14558911   0.01723999   0.00037000
C    3.56695867  -0.05259998   0.00068000
N    4.27033806   1.08193958   0.00060000
O    5.60004759   0.68131977   0.00094000
C    5.65914774  -0.67509973   0.00122000
C    4.38939810  -1.19198954   0.00106000
H   -0.11714996   0.13755995  -0.00010000
H    6.65236759  -1.09878957   0.00150000
H    4.10244846  -2.23173904   0.00121000

