%chk=mol_4610.chk
# wB97XD/Def2SVP opt freq pop=full gfinput

C 4 H 9 N 1 O 2

1 2
C    0.71305978  -0.00920000  -0.42608985
C    2.21814919   0.21779992  -0.31804988
C    2.96817899  -0.11410996  -1.60920942
O    2.38571906   0.53063977  -2.74256897
C    2.50864911   1.64487934   0.11853996
N    2.21757913   2.61919904  -0.78915972
O    2.93751884   1.92620933   1.23229957
H    0.22295992   0.20718992   0.52946979
H    0.49715981  -1.04955959  -0.68913978
H    0.24979991   0.63629979  -1.17942953
H    2.61418891  -0.43336982   0.47246981
H    2.96446896  -1.19402957  -1.79284930
H    4.01250839   0.20935993  -1.54568946
H    1.67241943  -0.04808998  -3.06835866
H    2.14918923   2.37372923  -1.77371931
H    2.48906898   3.56369853  -0.55323982

