%chk=mol_3559.chk
# wB97XD/Def2SVP opt freq pop=full gfinput

C 5 H 6 O 2

1 2
O    1.16966963  -0.04808998   0.51491982
C    2.31991935   0.01642999   0.13157995
C    3.17139864   1.24652958   0.04584998
C    4.30459833   0.79062974  -0.87438965
C    4.53866816  -0.69583970  -0.60181975
C    3.16078877  -1.17685950  -0.26022992
O    2.77951884  -2.32871914  -0.22579992
H    3.54323864   1.49383938   1.04429960
H    2.61732888   2.08520937  -0.38082984
H    3.99840856   0.92376965  -1.91968930
H    5.21415806   1.38031948  -0.72242969
H    4.93263817  -1.21000957  -1.48101950
H    5.19335794  -0.84464967   0.26158988

