%chk=mol_1459.chk
# wB97XD/Def2SVP opt freq pop=full gfinput

C 5 H 8 N 2

1 2
C    3.08638883  -1.09668958  -0.55412978
C    2.49593902   0.16322994   0.06207998
N    3.50438857   1.22591949   0.07348997
C    3.41925859   2.13756919  -1.05981958
C    2.93125892   2.55915904   0.31028989
C    3.68576860   3.54796863   1.03166962
N    4.27116823   4.37142801   1.60439932
H    2.35065913  -1.90709925  -0.53155977
H    3.97111845  -1.43138945  -0.00184000
H    3.37450862  -0.93160969  -1.59775937
H    2.20055914  -0.05397998   1.09530962
H    1.58146942   0.43531984  -0.48115984
H    2.68646908   1.94484925  -1.83400929
H    4.36676884   2.52211905  -1.42098951
H    1.85762930   2.61658907   0.45549983

