%chk=mol_3353.chk
# wB97XD/Def2SVP opt pop=full gfinput

C 7 H 12

1 2
C    4.589824  -1.689188  -2.142118
C    6.856210  -0.593865  -0.754076
C    6.144407   1.726529   0.717586
C    7.148664   4.018616   0.300712
C    6.538150   6.324894   1.666417
C    4.597798   6.258319   3.744473
C    7.706152   8.497040   1.060892
H    5.141737  -3.392323  -3.177801
H    3.820592  -0.332932  -3.502664
H    3.081104  -2.205613  -0.823202
H    8.357351  -0.180563  -2.121142
H    7.608245  -2.008099   0.558943
H    4.745140   1.445792   2.195692
H    8.554525   4.202959  -1.194571
H    2.761495   5.642457   3.014321
H    4.319687   8.121986   4.604167
H    5.184237   4.970207   5.255612
H    9.112127   8.603734  -0.428892
H    7.286481  10.246889   2.047556

