%chk=mol_3854.chk
# wB97XD/Def2SVP opt pop=full gfinput

C 7 H 10

1 2
C    1.794937   0.009808   0.033656
C    4.667983   0.017839   0.033297
C    5.720938   2.707637   0.000000
C    8.449702   2.707637   0.000000
C   10.698779   2.707637   0.000000
C   13.355734   2.707637   0.000000
C   14.682095   4.858165   0.000057
H    1.084041  -1.932472   0.057637
H    1.049856   0.944863  -1.655173
H    1.050177   0.986172   1.699091
H    5.350230  -1.033057  -1.617757
H    5.350533  -0.991993   1.709673
H    5.018621   3.746590   1.649372
H    5.018583   3.705451  -1.674562
H   14.327507   0.900360  -0.000038
H   13.762818   6.692597   0.000094
H   16.731806   4.822165   0.000057

