%chk=mol_2526.chk
# wB97XD/Def2SVP opt pop=full gfinput

C 5 H 10 O 2

1 2
C    1.786320   0.116143  -0.351413
C    4.576785   0.008371   0.035243
O    5.304235  -0.284687   2.640836
C    6.238628  -1.312472  -1.858243
C    6.429793   1.510949  -1.558230
C    5.592040   3.234474  -3.626441
O    8.613126   2.405886  -0.190258
H    1.258954   0.086512  -2.349515
H    1.015331   1.839875   0.496526
H    0.881425  -1.506112   0.555579
H    6.657430   0.914627   3.015946
H    5.367540  -2.055739  -3.559469
H    7.749616  -2.486445  -1.136878
H    4.041879   2.441583  -4.743496
H    7.161136   3.609755  -4.922510
H    4.960645   5.042526  -2.841506
H   10.162550   1.755008  -0.939874

