%chk=mol_4409.chk
# wB97XD/Def2SVP opt freq pop=full gfinput

C 5 H 7 N 1 O 1

1 2
C    0.98607963  -0.06054998   0.04831998
C    2.50515914   0.03302999  -0.04659998
C    3.02923870  -0.76906973  -1.23464954
C    2.91882896   1.49072945  -0.16304994
O    3.04554868   2.08478928  -1.22894955
C    3.13092875   2.18459916   1.09706962
N    3.29085875   2.70342898   2.12377906
H    0.61224973   0.49061981   0.91796964
H    0.66439974  -1.10258961   0.14593995
H    0.50515980   0.36391988  -0.84010971
H    2.95129895  -0.38412985   0.86480969
H    2.59592891  -0.42014983  -2.17857909
H    2.78735876  -1.83119929  -1.12332952
H    4.11766863  -0.67571980  -1.31623948

