%chk=mol_3369.chk
# wB97XD/Def2SVP opt pop=full gfinput

C 6 H 10 O 1

1 2
C    2.001447   0.059999  -0.565047
O    4.673387   0.298426  -0.435223
C    5.678552   2.678177  -0.125081
C    4.359353   4.837831   0.066348
C    8.426383   2.726440  -0.009997
C    9.941849   0.698613  -0.162139
C   12.759223   0.818497  -0.036075
H    1.553317  -1.943394  -0.811165
H    1.243062   1.084797  -2.194615
H    1.113729   0.697951   1.191567
H    2.316275   4.904198  -0.008012
H    5.300701   6.644560   0.309254
H    9.290725   4.580035   0.220455
H    9.131573  -1.177980  -0.391211
H   13.452224   2.755107   0.182037
H   13.575320   0.033127  -1.766062
H   13.440166  -0.294684   1.568019

