%chk=mol_6808.chk
# wB97XD/Def2SVP opt pop=full gfinput

C 7 H 10

1 2
C   -2.751025   1.251547   0.455972
C   -2.687795  -1.486459  -0.435261
C   -0.525060  -2.972709   0.618866
C    1.878199  -2.219238   0.866685
C    3.006630   0.100307  -0.001266
C    1.898135   2.255105  -0.738656
C   -0.842591   2.954171  -0.871277
H   -4.644909   2.014750   0.090877
H   -2.475844   1.346638   2.509764
H   -2.694466  -1.613618  -2.503339
H   -4.435490  -2.396456   0.210761
H   -1.002349  -4.857730   1.292951
H    3.210040  -3.542462   1.713150
H    5.065109   0.036906  -0.067784
H    3.158054   3.759024  -1.369277
H   -1.039028   4.855595  -0.063911
H   -1.360074   3.124700  -2.872195

