%chk=mol_5416.chk
# wB97XD/Def2SVP opt pop=full gfinput

C 4 H 5 N 1 O 2

1 2
C    1.824531   0.093844  -0.899718
O    4.503444   0.246760  -0.599005
C    5.663566   2.499314  -0.273576
N    4.861736   4.804704  -0.141729
O    2.248528   5.071742  -0.378644
C    8.364759   2.325856  -0.015382
C   10.619543   2.172599   0.199177
H    1.335791  -1.900101  -1.143624
H    1.222653   1.103657  -2.599262
H    0.860827   0.777377   0.795650
H    2.026108   6.896574  -0.231699
H   12.619232   2.041868   0.389888

