%chk=mol_2626.chk
# wB97XD/Def2SVP opt freq pop=full gfinput

C 6 H 12 O 1

1 2
C    1.86856925  -0.64633977  -1.29495955
C    2.36697912  -0.08741997   0.02932999
C    3.15838885   1.21122956  -0.14737993
C    4.46147823   1.04198956  -0.92597967
C    2.33855915   2.45314908  -0.55687976
O    2.83363891   3.20204878   0.57994980
C    3.36010861   1.98890924   1.17154956
H    1.24850953  -1.53156936  -1.12003958
H    2.69867897  -0.94601965  -1.94174922
H    1.26571941   0.08890997  -1.83731925
H    2.98773885  -0.83974969   0.52960980
H    1.49865949   0.08340997   0.67784977
H    5.04202843   1.97128928  -0.94660962
H    4.27032852   0.75939971  -1.96599925
H    5.09006786   0.26881990  -0.47174981
H    1.24860954   2.35298896  -0.51103979
H    2.61865902   2.92316890  -1.50430942
H    4.39452839   2.11822915   1.50509942
H    2.74721909   1.67512929   2.02354932

