%chk=mol_7022.chk
# wB97XD/Def2SVP opt freq pop=full gfinput

C 6 H 11 N 1

1 2
C    0.95233965   0.02441999  -0.69319969
C    2.41889930   0.01184000  -0.41146985
C    3.21606898   1.08520961  -0.52967978
C    4.65516806   1.11266959  -0.26258990
C    5.59968805   0.53151977  -1.29201949
N    5.46534777   1.97141922  -1.12282956
C    6.59476757   2.58227921  -0.42978984
H    0.72080976  -0.68157971  -1.49696946
H    0.59587979   1.01482964  -0.99568963
H    0.39828986  -0.27839988   0.20103991
H    2.84412885  -0.93789965  -0.09787997
H    2.77700901   2.03146935  -0.84538966
H    4.92984819   1.03681958   0.78417969
H    5.18816805   0.12563996  -2.20899916
H    6.50395727   0.04582999  -0.94563967
H    6.27208757   3.51352859   0.04752998
H    7.37594700   2.83503890  -1.15443957
H    7.04809713   1.94944930   0.34307986

