%chk=mol_5350.chk
# wB97XD/Def2SVP opt freq pop=full gfinput

C 5 H 5 N 1 O 1

1 2
C    1.01209962  -0.07735997   0.01268000
O    2.43134904  -0.00918000   0.01254999
C    2.89400887   1.33854949   0.00000000
C    4.33800840   1.33854949   0.00000000
C    5.52816820   1.33854949   0.00000000
C    7.06259775   1.33476949   0.00003000
N    8.22215748   1.34259951  -0.00004000
H    0.71786976  -1.13026953   0.02269999
H    0.60553974   0.39021987  -0.88927966
H    0.60485977   0.40749985   0.90515965
H    2.51302910   1.86182928   0.88421965
H    2.51306891   1.84527934  -0.89382970

