%chk=mol_5786.chk
# wB97XD/Def2SVP opt freq pop=full gfinput

C 5 H 9 N 1 O 1

1 2
N    0.93252969  -0.02255999  -0.21803991
C    2.38050914  -0.07938997  -0.53429979
C    2.59496903  -1.17903948  -1.59568942
O    1.71007931  -0.97743964  -2.69781899
C    2.85965872   1.30178952  -1.02588964
C    4.32620859   1.36547947  -1.15348959
C    5.52072811   1.42062938  -1.26854944
H    0.77679968   0.67913973   0.50741982
H    0.64815980  -0.91260964   0.19525993
H    2.92801881  -0.35320985   0.37596986
H    2.37252903  -2.16444921  -1.17139959
H    3.62196875  -1.20017958  -1.97110927
H    0.89398968  -0.61516982  -2.29483891
H    2.54676914   2.07271934  -0.30974987
H    2.39185905   1.55689943  -1.98446929
H    6.57890749   1.47146952  -1.38310957

