%chk=mol_5440.chk
# wB97XD/Def2SVP opt freq pop=full gfinput

C 5 H 9 N 1 O 1

1 2
C    3.04568887  -1.24983954   0.07334997
O    3.93097854  -0.35035989   0.72956973
N    4.01199865   0.82471967  -0.03312999
C    4.81855822   1.64762938   0.55419981
C    5.13373804   2.99630880   0.01574999
C    4.47798824   3.41063881  -1.26192963
C    5.98775768   3.76354861   0.70868975
H    2.96802878  -2.15916920   0.67502975
H    3.43684864  -1.51235938  -0.91434962
H    2.05109930  -0.80309969  -0.02060999
H    5.31693792   1.37415946   1.50227940
H    4.75033855   2.72804880  -2.07360911
H    4.77859783   4.41990852  -1.56311941
H    3.38835859   3.40851879  -1.15379953
H    6.44760799   3.43284869   1.63497937
H    6.25274754   4.75772810   0.36110985

