%chk=mol_3664.chk
# wB97XD/Def2SVP opt pop=full gfinput

C 5 H 10 O 2

1 2
O    4.076612  -0.727091  -2.560107
C    4.410658   0.055974  -0.014929
C    5.964977   2.461803  -0.007294
C    4.663409   4.881805  -1.019677
C    5.941375   6.360723   1.146629
O    8.255098   7.660515   0.535700
C    6.215347   3.826204   2.567798
H    3.091006  -2.278159  -2.524750
H    5.390255  -1.447719   1.012534
H    2.548466   0.343987   0.838490
H    7.821690   2.154193  -0.889475
H    2.595369   4.873509  -0.899491
H    5.214283   5.433813  -2.933856
H    4.659498   7.681812   2.093533
H    9.257825   6.464375  -0.434410
H    8.014801   3.531369   3.541082
H    4.671951   3.462300   3.900829

