%chk=mol_2148.chk
# wB97XD/Def2SVP opt freq pop=full gfinput

C 5 H 4 N 2

1 2
N    1.01688957  -0.02402999   0.00035000
N    2.35059929  -0.00550000  -0.00000000
C    2.88154888   1.16734958  -0.00001000
C    4.31402826   1.12168956  -0.00004000
C    5.51434803   1.10063958  -0.00002000
C    7.04701710   1.08238959  -0.00000000
C    8.24550724   1.07080960   0.00001000
H    0.55211979  -0.92599964  -0.00013000
H    0.44355986   0.81116968  -0.00017000
H    2.35711908   2.13586926   0.00006000
H    9.31117725   1.05862951   0.00000000

