%chk=mol_3933.chk
# wB97XD/Def2SVP opt pop=full gfinput

C 4 H 8 N 2 O 1

1 2
C    1.956660  -0.082411   0.223158
C    4.814361   0.051760   0.025833
C    5.928449   2.284452   1.433886
C    8.379575   1.131833   2.188511
N   10.173397   2.463258   3.143182
N    8.355972  -1.423776   1.839630
O    5.903958  -2.176360   1.158799
H    1.246067  -1.751493  -0.773711
H    1.070870   1.600088  -0.589235
H    1.351929  -0.270080   2.194180
H    5.378935   0.082940  -1.970058
H    4.873906   2.767580   3.147320
H    6.162907   3.958579   0.250842
H   11.688127   1.321863   3.525114
H    9.167175  -2.501752   3.203672

