%chk=mol_2374.chk
# wB97XD/Def2SVP opt freq pop=full gfinput

C 6 H 8 O 1

1 2
C    0.95862961  -0.12787995  -0.00374000
C    2.42333889   0.06652997  -0.00428000
C    3.24192882   1.18213952  -0.00084000
C    2.82446885   2.60424924   0.00493000
C    4.57276821   0.67770970  -0.00410000
C    4.47307825  -0.69329977  -0.00938000
O    3.17088866  -1.07197964  -0.00955000
H    0.43016982   0.83007973   0.00863000
H    0.64939976  -0.69783980   0.87780970
H    0.64620978  -0.67679977  -0.89753968
H    3.69187856   3.27240872   0.01154000
H    2.22164917   2.82390904   0.89214969
H    2.22823930   2.83279896  -0.88455969
H    5.49253798   1.24485946  -0.00285000
H    5.19386816  -1.49791944  -0.01325999

