%chk=mol_4835.chk
# wB97XD/Def2SVP opt freq pop=full gfinput

C 5 H 9 N 1 O 1

1 2
C    3.15489888  -1.21185946   0.28744990
C    2.45090914   0.10339995   0.06492998
O    1.23614955   0.13166995  -0.14097995
C    3.23621893   1.38874948   0.08613997
C    2.39712906   2.62803888  -0.04010998
C    4.57346821   1.38108945   0.21622992
N    5.44049835   2.44597912   0.25541991
H    3.67234874  -1.20789957   1.25029945
H    3.85133862  -1.41031945  -0.53112978
H    2.41396904  -2.01735926   0.30881986
H    1.63192940   2.65289903   0.74342972
H    1.89815927   2.65248895  -1.01470959
H    2.97903872   3.54902864   0.05426998
H    5.12587786   0.44909984   0.31636989
H    5.07212782   3.31922865  -0.11320996
H    6.37594748   2.24173927  -0.09111997

