%chk=mol_2143.chk
# wB97XD/Def2SVP opt pop=full gfinput

C 5 H 8 N 2

1 2
N    1.445508   5.479091   0.219435
N    3.153424   3.577138   0.217923
C    5.471834   4.361545   0.152028
C    7.606110   2.565058   0.160003
C    9.981213   3.438791   0.165427
C   12.152054   1.785413   0.187329
C   14.531295   2.639777   0.232531
H   -0.332535   4.733216   0.072754
H    1.454938   6.415960   1.910627
H    5.961576   6.392584   0.089951
H    7.130806   0.573475   0.169508
H   10.345513   5.462764   0.159379
H   11.820861  -0.244965   0.166447
H   14.978555   4.641432   0.258023
H   16.107269   1.325813   0.249576

