%chk=mol_5962.chk
# wB97XD/Def2SVP opt pop=full gfinput

C 5 H 5 N 1 O 1

1 2
O    2.071726  -0.006916   0.894634
C    4.288299  -0.019974   0.323899
C    6.261967   2.059990  -0.128482
C    8.001459  -0.023981  -1.251585
C    6.205218  -2.122446  -0.252127
C    8.268477   0.052969  -3.975341
N    8.473475   0.114536  -6.156595
H    6.954003   2.907684   1.626355
H    5.639529   3.546279  -1.420753
H    9.852408  -0.076609  -0.314980
H    5.543833  -3.512510  -1.629379
H    6.872688  -3.090685   1.449061

