%chk=mol_0119.chk
# wB97XD/Def2SVP opt freq pop=full gfinput

C 3 H 3 N 1 O 1

1 2
O    0.96223968   0.07536997   0.00000000
N    2.35789919  -0.04829998  -0.00000000
C    2.87943888   1.12747955   0.00000000
C    4.31361866   1.09250963   0.00000000
C    5.51483822   1.06943953   0.00000000
H    0.67134976  -0.85636967  -0.00000000
H    2.33645916   2.08482933   0.00000000
H    6.57958746   1.03845954  -0.00000000

