%chk=mol_0770.chk
# wB97XD/Def2SVP opt pop=full gfinput

C 6 H 8

1 2
C    1.906677  -0.427229  -0.000529
C    4.710312  -0.081750  -0.001890
C    5.931888   2.150489   0.000000
C    4.618887   4.674880   0.005612
C    8.588843   2.150489   0.000000
C   10.837919   2.150489   0.000000
H    1.448324  -2.442981  -0.021902
H    1.051085   0.425283  -1.680156
H    1.059248   0.388377   1.702454
H    5.806845  -1.822490  -0.003836
H    2.558878   4.518732   0.000151
H    5.162316   5.767406  -1.666568
H    5.154304   5.755180   1.688489
H   12.850346   2.147844  -0.000019

