%chk=mol_4131.chk
# wB97XD/Def2SVP opt freq pop=full gfinput

C 4 H 9 N 1 O 2

1 2
C    0.92810965   0.09561996  -0.05233998
C    2.42834902  -0.02635999   0.05816998
N    2.95739889  -0.00025000   1.45209944
C    3.18262863  -0.82852972  -0.98853964
O    2.40055895  -1.42966938  -2.03588915
C    3.26110888   0.67252976  -1.00305963
O    4.49010801   1.24948955  -0.52168983
H    0.59204978   0.20002992  -1.09051955
H    0.57547981   0.97571963   0.49765983
H    0.44458982  -0.79175973   0.37088987
H    3.83627844  -0.51728982   1.49995947
H    2.32274914  -0.51571983   2.06456923
H    4.07498837  -1.36321950  -0.68052971
H    2.84494901  -1.32552958  -2.89478898
H    2.74350905   1.19866955  -1.79790926
H    4.37429810   1.46844947   0.42386985

