%chk=mol_2762.chk
# wB97XD/Def2SVP opt freq pop=full gfinput

C 6 H 12 O 1

1 2
C    0.75901967   0.62903976  -0.34230986
C    2.18798900   0.68688971   0.09186997
C    3.18261886   1.18068957  -0.66177976
C    4.63155842   1.22980952  -0.21928991
C    5.48210812   0.38349986  -1.16563964
C    5.14817810   2.67709899  -0.18463993
O    4.52536821   3.42034864   0.86098963
H    0.41539985  -0.40993986  -0.35446987
H    0.61290979   1.04921961  -1.34226942
H    0.13408995   1.19047964   0.35864988
H    2.40328908   0.29085988   1.08265960
H    2.96081901   1.56957948  -1.65493941
H    4.71402836   0.81069970   0.79155970
H    5.45129776   0.77079970  -2.19092917
H    5.13147831  -0.65483975  -1.18734956
H    6.52865744   0.37350985  -0.84181964
H    4.96945810   3.19791865  -1.13207948
H    6.22624779   2.69448900   0.00856000
H    3.56307864   3.32297873   0.74690974

