%chk=mol_3345.chk
# wB97XD/Def2SVP opt freq pop=full gfinput

C 6 H 12 O 1

1 2
C    1.20161951   2.23377919   1.12131965
O    2.61761880   2.12039924   1.13213956
C    3.09273863   1.36876953   0.01611999
C    4.60066795   1.30415952   0.08557997
C    5.14067841   0.45671985   1.20746958
C    5.38200760   1.33453953  -1.21327949
C    5.38592815   2.53715897  -0.31295988
H    0.89627969   2.81417894   1.99578929
H    0.73735970   1.24471962   1.17870963
H    0.86564964   2.75667882   0.22090992
H    2.76355886   1.85317934  -0.91144967
H    2.67414904   0.35601985   0.04499998
H    6.23659754   0.45859984   1.23128951
H    4.81110811  -0.58129978   1.09186959
H    4.78678799   0.82519966   2.17569923
H    4.84009838   1.40696943  -2.14976931
H    6.29584789   0.75447977  -1.28518951
H    6.29617786   2.76864910   0.22921991
H    4.83361816   3.41659880  -0.62646979

