%chk=mol_6322.chk
# wB97XD/Def2SVP opt freq pop=full gfinput

C 4 H 5 N 1 O 2

1 2
O    1.12831950  -0.05436998  -0.35118985
N    2.47725916  -0.00308000  -0.02002999
C    3.18683887  -1.14344954   0.12070996
C    4.44484854  -0.82335967   0.44252983
C    4.60944843   0.68077970   0.53015977
C    3.19537878   1.14471960   0.19596992
O    2.78770876   2.29357910   0.13439995
H    0.89853966   0.89613962  -0.36815986
H    2.73850894  -2.11478925  -0.02013999
H    5.24237823  -1.52990937   0.61892980
H    4.88353777   0.99381959   1.54002941
H    5.31699800   1.04880965  -0.21611992

