%chk=mol_0515.chk
# wB97XD/Def2SVP opt freq pop=full gfinput

C 6 H 8

1 2
C    0.91532964   0.00120000   0.06813998
C    2.43772912   0.00043000   0.09467997
C    3.02410889   1.16547966  -0.66021979
C    3.80153847   0.71752971  -1.65901935
C    3.79989862  -0.72348976  -1.65623927
C    3.02262878  -1.16697955  -0.65790975
H    0.51915979   0.88807970   0.57499981
H    0.51815981  -0.88294965   0.57899976
H    0.52260983  -0.00092000  -0.95555961
H    2.79945898   0.00125000   1.12898958
H    2.84702897   2.20337939  -0.42101985
H    4.35293818   1.32324946  -2.36181903
H    4.35002851  -1.33229947  -2.35746908
H    2.84371877  -2.20402932  -0.41580984

