%chk=mol_4712.chk
# wB97XD/Def2SVP opt freq pop=full gfinput

C 4 H 9 N 1 O 2

1 2
C    2.05254936  -1.61218929   0.29245988
C    3.54923868  -1.36525953   0.40043983
N    3.80971861  -0.34803987   1.42580950
C    5.27770805  -0.14038995   1.56715941
C    5.51957798   1.13140965   2.37925911
O    4.40705824   1.91091931   2.42885900
O    6.58170748   1.44059944   2.89370894
H    1.84854925  -2.35888910  -0.48185983
H    1.51808941  -0.69430971   0.02451999
H    1.64195943  -1.98524928   1.23689961
H    3.92405844  -1.02576959  -0.57166976
H    4.05314827  -2.30496907   0.65416974
H    3.46130872  -0.71041971   2.32080913
H    5.74673796   0.00765000   0.58898979
H    5.72923803  -0.99005961   2.08809924
H    3.71100855   1.42734945   1.91874921

