%chk=mol_4702.chk
# wB97XD/Def2SVP opt pop=full gfinput

C 4 H 10 N 2 O 1

1 2
C    1.272409  -0.704244  -0.192299
C    4.150708  -0.451512  -0.077932
N    5.263284  -2.022460  -2.088431
C    5.046665   2.279520  -0.430555
C    4.381689   3.987020   1.767461
N    5.069530   6.452035   1.421414
O    3.329187   3.316243   3.712461
H    0.358424   0.323635   1.351324
H    0.699312  -2.687927  -0.023357
H    0.514913   0.026853  -1.975690
H    4.817894  -1.175882   1.744520
H    4.553295  -1.490314  -3.799294
H    4.704473  -3.851829  -1.840348
H    4.249522   3.091271  -2.163812
H    7.114044   2.314669  -0.609002
H    6.196393   7.012981  -0.013984
H    4.758595   7.662537   2.869360

