%chk=mol_4744.chk
# wB97XD/Def2SVP opt freq pop=full gfinput

C 5 H 7 N 1 O 1

1 2
C    0.93448967  -0.27101991   0.08471997
C    2.42691898   0.00303000   0.12958996
N    2.72317886   1.39344943  -0.12964995
C    2.84432888   1.88640928  -1.40394938
O    2.75807881   1.22428954  -2.42804909
C    3.08834887   3.30896878  -1.48787951
C    3.29239893   4.49127865  -1.55918944
H    0.73418975  -1.32652950   0.29260990
H    0.51666981  -0.02996999  -0.89822966
H    0.40433985   0.33243987   0.82901967
H    2.94412899  -0.61958975  -0.60812974
H    2.82514906  -0.23582992   1.12067962
H    2.75382900   2.04601932   0.64227974
H    3.47474861   5.53797770  -1.63760948

