%chk=mol_4472.chk
# wB97XD/Def2SVP opt freq pop=full gfinput

C 5 H 13 N 1 O 1

1 2
C    1.23194957  -0.11019996   0.73919970
C    2.40952921  -0.13471994  -0.24282990
C    2.27687907  -1.28962946  -1.25441957
N    1.14269948  -1.13476956  -2.16091919
C    2.56226897   1.25250959  -0.90454966
C    3.77589869   1.37939954  -1.82016933
O    4.97406816   1.10550952  -1.10539949
H    1.41064942   0.62249976   1.53357947
H    1.10009956  -1.08799958   1.21402955
H    0.29369989   0.15961994   0.24395990
H    3.31214881  -0.33179986   0.35102987
H    2.17136931  -2.23834920  -0.71504968
H    3.19290876  -1.37403953  -1.84832931
H    0.27296990  -1.18131959  -1.63187933
H    1.11994958  -1.92701924  -2.80247903
H    2.65651894   2.00022936  -0.10610996
H    1.65848935   1.50837934  -1.47026944
H    3.84282851   2.39599919  -2.22124910
H    3.71690869   0.69518971  -2.67076898
H    5.03987789   1.76201940  -0.39095986

