%chk=mol_4328.chk
# wB97XD/Def2SVP opt freq pop=full gfinput

C 5 H 11 N 1 O 1

1 2
C    1.00674963  -0.41150984   0.47835982
C    2.23817897  -0.49010983  -0.42728984
C    1.99815929  -1.52093947  -1.53241944
C    2.57027912   0.87542969  -1.04795957
C    3.14390874   1.87031925  -0.05635998
N    3.31544876   3.12482882  -0.56761980
O    3.46118879   1.61508942   1.09677958
H    1.16710961   0.27727988   1.31330955
H    0.77630967  -1.39453948   0.90310967
H    0.12632996  -0.06991997  -0.07648997
H    3.08781886  -0.83324969   0.17614993
H    1.15667951  -1.23062956  -2.17116928
H    1.77608931  -2.50490904  -1.10578966
H    2.88477898  -1.62592936  -2.16681933
H    1.67660940   1.31179941  -1.50973940
H    3.32400870   0.74842972  -1.83445942
H    3.12315869   3.36111879  -1.53021944
H    3.71753860   3.82690859   0.03953999

