%chk=mol_6841.chk
# wB97XD/Def2SVP opt freq pop=full gfinput

C 6 H 9 N 1

1 2
C    0.99342960   0.03472999   0.05041998
C    2.50879908  -0.02844999   0.01436999
N    3.14679885   0.99863964   0.88788968
C    4.19251871  -0.00124000   1.22467959
C    3.18897891  -1.12394953   0.87938964
C    3.71929860  -2.26959920   0.16937993
C    4.15497828  -3.22265887  -0.41519982
H    0.56474978  -0.81070971  -0.49771982
H    0.63090980   0.95440960  -0.42085984
H    0.60413975   0.00067000   1.07382965
H    2.88027883   0.02252999  -1.01925969
H    2.57717896   1.26773953   1.69115937
H    5.07307816   0.06396998   0.57339978
H    4.52921867   0.02753999   2.26549911
H    2.58727908  -1.41751945   1.75165939
H    4.54214859  -4.06933832  -0.93491960

