%chk=mol_6200.chk
# wB97XD/Def2SVP opt freq pop=full gfinput

C 5 H 5 N 1 O 1

1 2
O    1.96713936  -1.22155952   0.05735998
C    1.79219937  -0.01448999  -0.07501997
C    2.87546897   1.04007959   0.04132998
C    4.25222826   0.44821984  -0.01115000
C    5.02551842   0.25095990   1.06845963
C    6.32784796  -0.31372988   0.97607964
N    7.39644718  -0.75832969   0.90541965
H    0.77769971   0.38402987  -0.24842991
H    2.70518899   1.59456944   0.97017962
H    2.75593901   1.74092937  -0.79161972
H    4.61638832   0.15914994  -0.99694967
H    4.67674828   0.50819981   2.06260920

