%chk=mol_1876.chk
# wB97XD/Def2SVP opt pop=full gfinput

C 7 H 12

1 2
C    5.799570  -2.126717  -1.219951
C    4.805233   0.089365   0.318778
C    6.324252   2.512448  -0.105352
C    6.231202   3.518576  -2.828145
C    6.408704   6.311515  -2.455983
C    5.954980   6.965663  -0.057504
C    5.402633   4.713468   1.551276
H    4.715169  -3.835350  -0.789735
H    7.786144  -2.502489  -0.780532
H    5.637960  -1.770371  -3.250839
H    4.870296  -0.412905   2.327897
H    2.813141   0.403116  -0.156677
H    8.310959   2.133444   0.379759
H    4.466405   3.041968  -3.798482
H    7.823523   2.801878  -3.936337
H    6.789654   7.630620  -3.969899
H    5.918509   8.886645   0.636857
H    6.447935   4.780610   3.334535
H    3.377319   4.612160   1.964899

