%chk=mol_5749.chk
# wB97XD/Def2SVP opt freq pop=full gfinput

C 6 H 11 N 1

1 2
C    1.10034966   0.17745994   0.14360996
C    2.57014918  -0.08417998  -0.18520993
C    2.83493900  -1.54746938  -0.56072980
C    2.75402904  -1.56439948  -2.07612920
C    3.23974872  -0.20021991  -2.44461918
C    2.31226897   0.97371966  -2.46331906
N    3.13940883   0.72923976  -1.28740954
H    0.92185962   1.24212956   0.32225987
H    0.81820965  -0.36416987   1.05285966
H    0.42746985  -0.16076994  -0.64802974
H    3.14567876   0.14674994   0.72001976
H    2.14208937  -2.25601912  -0.09708996
H    3.85138845  -1.82279932  -0.25266990
H    3.37623882  -2.35578918  -2.50371909
H    1.72261930  -1.71533930  -2.41528916
H    4.17524862  -0.17274994  -2.98502898
H    2.59967899   1.83060932  -3.06161904
H    1.24498963   0.81213969  -2.42228913

