%chk=mol_0520.chk
# wB97XD/Def2SVP opt pop=full gfinput

C 5 H 7 N 1

1 2
N    1.758409   0.004120   0.116086
C    4.493353   0.001247   0.192110
C    5.572651   2.195729  -1.241475
C    7.066121   1.358770  -3.116555
C    7.061189  -1.364779  -3.111340
C    5.568777  -2.194709  -1.238073
H    1.111083   1.542791   1.067865
H    1.108362  -1.530055   1.072684
H    5.172766   0.002702   2.146805
H    5.206460   4.154884  -0.813414
H    8.083776   2.508744  -4.455880
H    8.078523  -2.517871  -4.450910
H    5.200413  -4.151067  -0.808557

