%chk=mol_7003.chk
# wB97XD/Def2SVP opt freq pop=full gfinput

C 5 H 10 N 2

1 2
C    2.62970901  -0.51211977   1.39386940
C    2.52473903   0.09754997   0.00927000
C    3.05642867   1.49798942   0.00888000
N    4.25377798   1.80238938  -0.38827986
N    4.38587809   3.13389874  -0.17241994
C    3.09521890   3.79005861  -0.00321000
C    2.24658918   2.64909911   0.52187979
H    2.26162910  -1.54263937   1.38604939
H    2.04030919   0.05523998   2.12185907
H    3.66817856  -0.52070981   1.74192941
H    1.48142934   0.11512996  -0.32131988
H    3.09601879  -0.50167984  -0.70757973
H    4.98152828   3.58614850  -0.86718971
H    2.71631908   4.13892841  -0.97030967
H    3.14168882   4.63464785   0.68918973
H    1.23609960   2.64543891   0.10791996
H    2.21921921   2.61398911   1.61475933

