%chk=mol_1158.chk
# wB97XD/Def2SVP opt freq pop=full gfinput

C 4 H 4 O 1 S 1

1 2
O    0.85543966   0.10638995  -0.00601000
C    2.18403912   0.07340997   0.00031000
C    3.07247877   1.12887955   0.00475000
C    4.43189812   0.69744974   0.01113000
C    4.53360844  -0.67490971   0.01136000
S    2.99892879  -1.42842948   0.00391000
H    0.58901978   1.04053962  -0.00708000
H    2.76955891   2.16775918   0.00350000
H    5.28933811   1.35939944   0.01532999
H    5.43310785  -1.27516949   0.01551999

