%chk=mol_1398.chk
# wB97XD/Def2SVP opt pop=full gfinput

C 6 H 13 N 1

1 2
C    5.449366  -1.600655  -2.090982
C    4.978125  -0.321424   0.447241
C    6.113869   2.358454   0.623836
N    5.354199   3.427056   3.067725
C    5.869659   6.121144   3.273384
C    8.953163   2.292767   0.372786
C   10.251953   3.467648  -1.457603
H    4.464951  -3.418685  -2.159560
H    7.460809  -1.967621  -2.395493
H    4.750828  -0.435487  -3.650063
H    5.727854  -1.533910   1.955772
H    2.925844  -0.213652   0.737995
H    5.276248   3.493159  -0.898300
H    6.228953   2.478811   4.494827
H    4.936475   7.184361   1.763398
H    7.895540   6.535089   3.243110
H    5.120742   6.820456   5.070419
H    9.990170   1.199504   1.770617
H    9.309339   4.577616  -2.903073
H   12.297412   3.340677  -1.540713

