%chk=mol_6998.chk
# wB97XD/Def2SVP opt freq pop=full gfinput

C 5 H 12 N 2

1 2
C    1.93544924  -0.59044981  -1.33913958
C    2.42314911  -0.09018996   0.01294999
C    3.15957880   1.23247945  -0.09611996
N    4.44350815   1.13611960  -0.82846969
C    2.39804912   2.51023912  -0.53868979
N    3.11349869   3.28489876   0.50474977
C    3.39992881   2.01731920   1.22359955
H    1.36454940  -1.51620948  -1.21484947
H    2.77002907  -0.80099970  -2.01523924
H    1.28638959   0.14601994  -1.82387936
H    3.06672883  -0.85004973   0.47256982
H    1.55271935   0.01978999   0.67100978
H    4.99103832   1.99435925  -0.81644970
H    4.33522844   0.89226967  -1.81226933
H    1.31505954   2.47286916  -0.36682984
H    2.56409883   2.85847902  -1.56359947
H    3.95670867   3.73965859   0.15821993
H    4.39938831   1.95649922   1.66718936
H    2.66917896   1.81012928   2.01559925

