%chk=mol_6544.chk
# wB97XD/Def2SVP opt freq pop=full gfinput

C 4 H 10 N 2 S 1

1 2
C    0.86242962  -0.25530991  -0.08993997
C    2.38842916  -0.22636990  -0.12379996
C    2.91599894  -0.97042966  -1.34694946
N    2.87137890   1.15352964  -0.13311994
C    2.97021890   2.01038933   0.90607965
N    2.86148906   1.51656938   2.15282917
S    3.18582869   3.63539863   0.65180975
H    0.47887981   0.25134990   0.80204970
H    0.49095979  -1.28522944  -0.07818997
H    0.43772984   0.25142992  -0.96350962
H    2.76929903  -0.72637975   0.77224976
H    2.57015896  -0.50570983  -2.27738905
H    2.58516908  -2.01438928  -1.34285951
H    4.01172829  -0.96221966  -1.36179948
H    2.88122892   1.62325943  -1.03234959
H    3.09720874   0.55418980   2.34087920
H    3.02027869   2.16627932   2.91413903

