%chk=mol_4988.chk
# wB97XD/Def2SVP opt freq pop=full gfinput

C 4 H 7 N 1 O 2

1 2
C    1.13720953  -0.00774000   0.34357986
N    2.57358909  -0.04790998   0.33996987
C    3.43528867   1.08693957  -0.03482999
C    4.42158842   0.06408998  -0.64783978
O    4.81324816   0.28914988  -2.02506924
C    3.25196886  -0.93810964  -0.44129986
O    2.93308902  -2.01034927  -0.90028965
H    0.74677974  -1.00753963   0.55268979
H    0.78076971   0.30722988  -0.64204979
H    0.80102968   0.69419974   1.10957956
H    3.81428862   1.63797939   0.82939965
H    2.96459889   1.77197933  -0.74725974
H    5.29245806  -0.16077994  -0.02341999
H    4.24529839  -0.31083989  -2.54460907

