%chk=mol_4089.chk
# wB97XD/Def2SVP opt freq pop=full gfinput

C 5 H 9 N 1 O 1

1 2
C    1.01225960  -0.28769991  -0.00952000
C    2.46973920  -0.32361990  -0.31210989
N    2.94544888  -0.19154993  -1.68875945
C    3.17923880   0.92606968  -0.77169973
C    4.57534838   1.21389961  -0.31744990
C    4.63706827   1.80716932   1.06668961
O    3.66177845   2.06595922   1.76425934
H    0.84992963   0.09669996   1.00285959
H    0.59070975  -1.29654956  -0.06167997
H    0.45709983   0.34953988  -0.70599973
H    3.00648880  -1.02275956   0.31776989
H    2.17152929   0.01349999  -2.32440925
H    2.59780908   1.82681930  -0.93774962
H    5.04122782   1.92943931  -1.00355959
H    5.18952799   0.30675986  -0.31286988
H    5.65785789   2.01484919   1.43677950

