%chk=mol_4334.chk
# wB97XD/Def2SVP opt pop=full gfinput

C 5 H 7 N 1 O 1

1 2
C    1.889726   0.000000   0.000000
C    4.618491   0.000000   0.000000
C    6.867567   0.000000   0.000000
C    9.596332   0.000000   0.000000
C   10.699761   2.631651  -0.266640
N   10.245736   3.818173  -2.517096
O   12.012119   3.644393   1.354896
H    1.145287   1.929240   0.021316
H    1.144985  -0.983017   1.659992
H    1.145079  -0.945959  -1.681440
H   10.337331  -1.163315  -1.544946
H   10.317848  -0.815927   1.761395
H    8.849039   3.230506  -3.681621
H   10.854361   5.623806  -2.674473

