%chk=mol_5175.chk
# wB97XD/Def2SVP opt freq pop=full gfinput

C 4 H 8 N 2 O 1

1 2
C    1.23874950   0.31365988  -1.46753943
N    2.59402895   0.12182996  -0.96107960
C    3.17831898   1.18940961  -0.55818981
N    4.45949841   1.17634952  -0.05357998
C    5.19752789  -0.07205997   0.01751999
C    5.08665800   2.34785914   0.32335991
O    6.24143744   2.46355915   0.71490973
H    1.14605951  -0.17324993  -2.44325900
H    0.95644969   1.36494946  -1.59369934
H    0.52233982  -0.15457994  -0.78546971
H    2.70940900   2.18860912  -0.58137983
H    4.55732822  -0.86300969   0.42004982
H    6.08685780   0.02078999   0.64686972
H    5.50333786  -0.35030988  -0.99598968
H    4.43460846   3.23262882   0.22940992

