%chk=mol_2199.chk
# wB97XD/Def2SVP opt pop=full gfinput

C 5 H 8 O 2

1 2
C    1.501369  -2.084708   1.136670
C   -0.712994  -2.807585  -0.581072
C   -2.858419  -0.946110  -0.468614
C   -2.638284   1.510931   0.092597
O   -0.463002   2.870494   0.414700
C    1.685220   1.941240  -0.932240
O    3.035410  -0.073378   0.226881
H    2.750515  -3.722779   1.344861
H    0.846578  -1.603074   3.043631
H   -1.442636  -4.637823   0.059602
H   -0.099003  -3.031650  -2.545197
H   -4.746576  -1.722466  -0.721252
H   -4.263090   2.721414   0.395841
H    3.014340   3.521580  -1.069698
H    1.200845   1.452028  -2.890676

