%chk=mol_1680.chk
# wB97XD/Def2SVP opt freq pop=full gfinput

C 5 H 12 N 2

1 2
C    2.24384928  -0.47293982  -1.38053954
N    2.29373908   0.11515996  -0.04707998
C    3.20840883   1.25931942  -0.04832998
C    2.45829892   2.53817892  -0.49689981
C    3.17790890   3.26489878   0.66971970
C    3.22289872   1.89120936   1.37728953
N    4.53169823   1.70076931   1.99904931
H    1.53911936  -1.31033945  -1.38203955
H    3.22310877  -0.85667974  -1.68551934
H    1.89566922   0.24906991  -2.12635922
H    2.55788898  -0.60854977   0.62105978
H    4.18738842   1.10448968  -0.51841980
H    1.36707938   2.51977897  -0.38440987
H    2.70355892   2.90525889  -1.49723947
H    4.14559841   3.69160867   0.37716985
H    2.58999896   4.03820848   1.17195964
H    2.36259913   1.68903935   2.02473927
H    5.32673836   1.91445923   1.39834940
H    4.68135786   0.75171977   2.33709931

