%chk=mol_1721.chk
# wB97XD/Def2SVP opt pop=full gfinput

C 7 H 12

1 2
C    1.910211   0.008901   0.144186
C    4.767817  -0.001096  -0.150252
C    6.106877   1.954922  -1.933435
C    5.398438   0.098700  -4.109455
C    6.092250  -1.872794  -2.034611
C    8.917372  -1.429483  -1.600466
C    8.928804   1.469451  -1.526351
H    1.320919   1.607363   1.320692
H    1.281423  -1.726775   1.080281
H    0.896883   0.154372  -1.650619
H    5.566566  -0.061605   1.767971
H    5.414613   3.891475  -2.004886
H    6.606596   0.137459  -5.789629
H    3.435031   0.119998  -4.754759
H    5.385833  -3.797575  -2.204706
H    9.573296  -2.251590   0.180809
H   10.072297  -2.168801  -3.149304
H   10.087661   2.277158  -3.037848
H    9.592816   2.195257   0.292737

