%chk=mol_0584.chk
# wB97XD/Def2SVP opt freq pop=full gfinput

C 5 H 8 O 1

1 2
C   -0.02034999   0.84761971  -0.05012998
C   -0.74470973  -0.45966983  -0.14895995
C    0.76194972  -0.44526982  -0.03943998
C    1.50825942  -0.92312962   1.19695961
C    1.12096953  -2.14128923   1.99959922
O    2.17245913  -2.18991923   1.03354955
H    0.03867998   1.46622944  -0.93819970
H   -0.10667995   1.40601945   0.87475967
H   -1.17673957  -0.73413968  -1.10448968
H   -1.32575953  -0.78061968   0.70748973
H    1.29580951  -0.66096973  -0.96650964
H    2.07709932  -0.15870994   1.71988940
H    0.19760993  -2.65227914   1.75956941
H    1.39860952  -2.17450929   3.04543877

