%chk=mol_3123.chk
# wB97XD/Def2SVP opt pop=full gfinput

C 5 H 12 O 2

1 2
C    2.008533  -0.439172  -0.576499
C    4.848244  -0.291925  -0.131941
C    5.838649   2.428336  -0.229507
O    4.641243   3.917081   1.677623
C    8.712488   2.517833   0.144677
C    9.762476   5.200753  -0.030935
O    8.879559   6.717107   2.001428
H    1.384319  -2.410553  -0.541255
H    1.506282   0.360257  -2.416374
H    0.963382   0.582962   0.885904
H    5.815027  -1.443184  -1.557701
H    5.256141  -1.125729   1.722107
H    5.358035   3.273573  -2.058876
H    4.803646   3.011165   3.274291
H    9.639399   1.332862  -1.278645
H    9.173127   1.758031   2.018662
H    9.227401   6.103173  -1.813702
H   11.827418   5.158140   0.071318
H    7.031538   6.564398   1.998178

