%chk=mol_7133.chk
# wB97XD/Def2SVP opt pop=full gfinput

C 6 H 11 N 1

1 2
C    1.840102  -0.190447   0.323143
C    4.717777  -0.054575   0.012831
C    5.451236  -1.459152  -2.420512
C    5.720938   2.707637   0.000000
C    4.817384   4.233289   2.291066
C    8.448304   2.759926  -0.069636
N   10.622283   2.801594  -0.125157
H    1.249071   0.489231   2.184202
H    1.173728  -2.143592   0.158605
H    0.877778   0.936454  -1.120286
H    5.571064  -1.077068   1.606210
H    4.690924  -0.505275  -4.091559
H    4.714451  -3.394402  -2.400198
H    7.504858  -1.593625  -2.633296
H    4.995926   3.657452  -1.696539
H    5.306956   3.288029   4.068429
H    2.769110   4.519091   2.250966
H    5.688510   6.113945   2.324401

