%chk=mol_4547.chk
# wB97XD/Def2SVP opt freq pop=full gfinput

C 5 H 9 N 1 O 1

1 2
C    2.24010921  -0.25512990   0.49232981
C    2.46277905  -0.29465988  -1.01784956
C    1.31893957  -0.99927962  -1.72494936
O    0.32953987  -1.46222949  -1.16437960
C    2.63884902   1.09901965  -1.56116939
C    4.02262831   1.66146934  -1.77574933
N    3.18342876   1.27587950  -2.90596890
H    3.07988882   0.23240991   0.99867964
H    2.13596916  -1.26628947   0.90057969
H    1.33036947   0.30104989   0.74690974
H    3.35888863  -0.89716965  -1.21595955
H    1.44060946  -1.10604954  -2.81752896
H    1.83949935   1.77474940  -1.27640951
H    4.88527822   1.03138959  -1.59610939
H    4.18288851   2.72222877  -1.62868941
H    2.78837895   2.10453916  -3.35855889

