%chk=mol_7098.chk
# wB97XD/Def2SVP opt freq pop=full gfinput

C 6 H 9 N 1

1 2
C    0.94261962  -0.03648999   0.00726000
C    2.43488908  -0.00248000   0.00946000
C    3.13901877   1.13798952   0.00000000
C    4.54501867   1.13798952   0.00000000
C    5.73517752   1.13798952   0.00000000
C    7.17917728   1.13798952   0.00000000
N    7.68399715   2.50356889   0.01075000
H    0.59394974  -1.07281959  -0.04039999
H    0.53961980   0.49111980  -0.86239970
H    0.54160982   0.41009983   0.92186970
H    2.95036888  -0.96055961   0.01958999
H    2.63200903   2.09859920  -0.00657000
H    7.56114721   0.61807972  -0.88497967
H    7.56203747   0.60917979   0.87876970
H    7.33154726   2.99017906  -0.81182975
H    8.69723701   2.48373890  -0.07818997

