%chk=mol_5855.chk
# wB97XD/Def2SVP opt freq pop=full gfinput

C 5 H 5 N 1 O 1

1 2
N    1.16790962  -0.07318997  -0.61200976
C    2.38386917  -0.05739998   0.00680000
O    2.85148883  -1.08205950   0.48806983
C    3.11849880   1.25053942   0.00000000
C    2.45120907   2.41462898   0.06812998
C    4.52449846   1.25053942   0.00000000
C    5.71465778   1.25053942   0.00000000
H    0.82654971   0.69138974  -1.17401958
H    0.70806974  -0.97112966  -0.68538976
H    1.37048948   2.46382904   0.13578996
H    2.98249888   3.36194873   0.09488997
H    6.77965736   1.23760951   0.00504000

