%chk=mol_4865.chk
# wB97XD/Def2SVP opt freq pop=full gfinput

C 4 H 8 N 2 O 1

1 2
C    3.30698872  -0.79035968   1.81430936
C    2.98396873  -0.30523989   0.42533982
O    2.31771922  -0.98953962  -0.35278985
C    3.45676875   1.07405961   0.04068999
C    4.95343828   1.22673965   0.10525996
N    5.50958776   2.10251927   0.98479962
N    5.74368763   0.55206978  -0.66291976
H    4.38931847  -0.83313966   1.95681918
H    2.89865899  -1.79567933   1.95469928
H    2.85427880  -0.12046996   2.54989910
H    2.96717906   1.80222940   0.69561976
H    3.13674879   1.28207946  -0.98681962
H    4.99963808   2.95534897   1.18171954
H    6.49160767   2.26663923   0.77852970
H    5.21270800  -0.06972997  -1.28692961

