%chk=mol_1037.chk
# wB97XD/Def2SVP opt pop=full gfinput

C 6 H 8

1 2
C    1.889726   0.000000   0.000000
C    4.618491   0.000000   0.000000
C    6.867567   0.000000   0.000000
C    9.596332   0.000000   0.000000
C   10.572432   2.663985  -0.034676
C   12.020170   3.688821   1.772771
H    1.145212   1.929203   0.022091
H    1.145042  -0.983640   1.659652
H    1.145042  -0.945373  -1.681743
H   10.316449  -0.987949  -1.671708
H   10.312198  -1.024685   1.651772
H   10.062527   3.809272  -1.665624
H   12.582024   2.629119   3.437072
H   12.663547   5.631573   1.623955

