%chk=mol_6226.chk
# wB97XD/Def2SVP opt pop=full gfinput

C 5 H 3 N 1 O 1

1 2
O    1.893260   0.161553   0.945581
C    4.116353   0.030765   0.309386
C    5.515374  -2.417942   0.022110
C    6.330488  -2.772568  -2.589511
N    7.009296  -3.066100  -4.653621
C    5.538409   2.340407  -0.071054
C    6.714499   4.256192  -0.387356
H    4.261087  -3.962151   0.594470
H    7.127631  -2.424764   1.319577
H    7.738655   5.966961  -0.674387

