%chk=mol_0156.chk
# wB97XD/Def2SVP opt pop=full gfinput

C 4 H 3 N 1

1 2
C    1.889726   0.000000   0.000000
C    4.138803   0.000000   0.000000
C    6.867567   0.000000   0.000000
C    7.778453   2.572238   0.000000
N    8.504504   4.622572   0.000000
H   -0.125081   0.012737   0.000000
H    7.582356  -1.008793  -1.660351
H    7.582356  -1.008774   1.660370

