%chk=mol_4811.chk
# wB97XD/Def2SVP opt pop=full gfinput

C 5 H 11 N 1 O 1

1 2
C    5.751816  -2.200567  -0.827076
C    4.558171   0.174951   0.269853
O    3.749632  -0.322123   2.787724
C    6.385309   2.341994   0.313562
C    6.637153   4.047264  -1.956150
C    5.415729   5.016014   0.416722
N    6.742335   6.903188   1.929807
H    6.367054  -1.898135  -2.778011
H    4.405821  -3.771818  -0.787165
H    7.395500  -2.790918   0.285311
H    2.870003   0.654733  -0.829495
H    5.233294  -0.779266   3.767849
H    8.096249   1.893619   1.345731
H    5.424440   3.729563  -3.576987
H    8.503447   4.732574  -2.447403
H    3.376374   5.280311   0.347955
H    8.631135   6.545180   2.026164
H    6.101189   6.875183   3.747648

