%chk=mol_4532.chk
# wB97XD/Def2SVP opt freq pop=full gfinput

C 4 H 10 N 2 O 1

1 2
C    0.95248961  -0.13994995   0.00883000
C    2.46515918  -0.00172000  -0.14552994
C    2.99655890  -0.91973960  -1.24454951
N    2.83801889   1.38758957  -0.42510983
O    2.32162905   1.89736938  -1.62356937
C    2.95748901   2.32939911   0.56480980
N    2.83268881   3.60501862   0.43353984
H    0.57933974   0.51050979   0.80712968
H    0.68124974  -1.17103958   0.25988990
H    0.42543983   0.13122995  -0.91291970
H    2.93748879  -0.31043988   0.79554969
H    2.54762912  -0.69123971  -2.21716928
H    2.78005886  -1.96793926  -1.01210964
H    4.08223820  -0.81317967  -1.34691954
H    3.12921882   2.13905931  -2.11647916
H    3.20142889   1.90150928   1.55179942
H    2.57046914   3.77106857  -0.54454976

