%chk=mol_4450.chk
# wB97XD/Def2SVP opt pop=full gfinput

C 4 H 5 N 1 O 2

1 2
C    1.889726   0.000000   0.000000
C    4.618491   0.000000   0.000000
C    6.867567   0.000000   0.000000
C    9.602530  -0.004743  -0.039382
O   10.740749  -2.009251  -0.275106
N   10.838146   2.273284   0.080049
O    9.526223   4.353702   1.111405
H    1.145306   1.929240   0.022431
H    1.145042  -0.983886   1.659501
H    1.145023  -0.945090  -1.681894
H   12.704648   2.153966   0.504198
H    8.963935   5.242176  -0.404628

