%chk=mol_3238.chk
# wB97XD/Def2SVP opt freq pop=full gfinput

C 5 H 8 O 2

1 2
C    1.73485935  -1.68446934   0.79066974
C    3.05525899  -1.03788960   1.11324954
O    3.60285878  -1.20726955   2.20359898
C    3.64245844  -0.12240995   0.05596998
C    5.16059828  -0.06291997   0.15096994
C    5.79948807  -1.35239959  -0.30248988
O    5.20487785  -2.23500919  -0.91420966
H    0.99890965  -0.91380966   0.54958981
H    1.38103950  -2.25210929   1.65545940
H    1.85902929  -2.36634922  -0.05393998
H    3.21547866   0.87405968   0.21489993
H    3.32878876  -0.47098982  -0.93432969
H    5.49210787   0.13704996   1.17509961
H    5.54777765   0.73491973  -0.49128982
H    6.87998724  -1.43998945  -0.09627996

