%chk=mol_0556.chk
# wB97XD/Def2SVP opt freq pop=full gfinput

C 5 H 11 N 1

1 2
N    1.02675962  -0.51663983   0.07742997
C    2.48472905  -0.53222978   0.11675996
C    3.04061890   0.87500966  -0.09434997
C    4.57005835   0.87050968  -0.04903998
C    5.13094807   2.24769926  -0.26066989
C    5.88204765   2.89742899   0.63765979
H    0.67452973  -1.46865940   0.16969994
H    0.70988971  -0.18090993  -0.83132970
H    2.86034894  -1.20884955  -0.65898979
H    2.80965900  -0.92423964   1.08669960
H    2.64994907   1.54794943   0.67982978
H    2.70062900   1.26736951  -1.06148958
H    4.96269846   0.21337992  -0.83475971
H    4.90994787   0.45830983   0.90932965
H    4.91022825   2.73054910  -1.21051943
H    6.13187790   2.45835900   1.59848940
H    6.26243734   3.89240861   0.42778984

