%chk=mol_2423.chk
# wB97XD/Def2SVP opt pop=full gfinput

C 5 H 8 O 2

1 2
C    2.033648   0.123324   0.014778
C    4.834392  -0.058147  -0.082260
C    6.243447  -2.142326  -0.146378
C    8.940011  -1.410435  -0.138422
O    9.963600  -1.924308   2.289366
C    8.738888   1.429370  -0.656548
O    6.189061   2.199074  -0.024944
H    1.147895  -1.744916  -0.042991
H    1.330065   1.215018  -1.594891
H    1.434548   1.064785   1.755631
H    5.561766  -4.061494  -0.136967
H   10.074886  -2.375159  -1.568813
H    8.857808  -1.109383   3.515495
H    9.029678   1.847585  -2.665421
H   10.065173   2.545442   0.471411

