%chk=mol_5530.chk
# wB97XD/Def2SVP opt pop=full gfinput

C 4 H 5 N 1 O 2

1 2
N    1.719500  -0.100515  -0.000718
C    4.253603  -0.019521  -0.001153
C    5.738248   2.110371  -0.006066
O    5.299284   4.565389  -0.011471
O    8.224788   1.491334  -0.004951
C    8.321258  -1.081509   0.000737
C    5.920984  -2.095782   0.003288
H    0.678412   1.513746  -0.003496
H    0.707381  -1.726227   0.003893
H    6.991741   5.279989  -0.013323
H   10.196735  -1.891597   0.002305
H    5.457189  -4.082961   0.007748

