%chk=mol_5443.chk
# wB97XD/Def2SVP opt freq pop=full gfinput

C 5 H 7 N 1 O 1

1 2
C    1.55247939  -0.50510979  -0.80524969
O    2.86366892  -0.27896991  -0.30099988
N    3.15097880   1.08966959  -0.41245985
C    4.35432816   1.29537952   0.01723999
C    4.95009804   2.67461896   0.03391999
C    6.17727757   2.72093892  -0.77191967
C    7.18076754   2.76341891  -1.43062949
H    1.33314943  -1.57341945  -0.73111975
H    1.49299943  -0.20477992  -1.85594928
H    0.81827968   0.04830998  -0.21179992
H    4.98144817   0.47144982   0.40341985
H    5.17742825   2.92390895   1.07568955
H    4.21709824   3.39790869  -0.33773988
H    8.06856728   2.80218887  -2.01903915

