%chk=mol_4631.chk
# wB97XD/Def2SVP opt freq pop=full gfinput

C 4 H 8 N 2 O 1

1 2
C    1.14778960  -0.37171987   0.38137987
C    2.20787907  -0.17969993  -0.69208980
C    2.30581927  -1.43837941  -1.53183937
O    3.30664873  -2.15096903  -1.56768942
N    1.78508937   0.92476964  -1.56963933
C    2.75859880   1.53492939  -2.13820910
N    2.56948900   2.57208896  -2.98942876
H    1.05434954   0.52814978   0.99838966
H    1.40195942  -1.21277952   1.03505957
H    0.16501994  -0.57764977  -0.05785998
H    3.17725897   0.01473999  -0.21669991
H    1.40279949  -1.70105946  -2.11020923
H    3.82491851   1.27600956  -2.00060940
H    1.62670934   2.94669890  -2.97345901
H    3.29690886   3.27471876  -3.03997874

