%chk=mol_6805.chk
# wB97XD/Def2SVP opt pop=full gfinput

C 5 H 8 N 2

1 2
C    1.996420  -0.057769   0.241564
C    4.523910  -0.018141   0.042840
C    6.111412   2.342202  -0.149118
N    8.301945   1.404615  -1.460418
C    8.528126  -1.145552  -1.269972
N   10.571468  -2.364199  -1.779480
C    6.134637  -2.353692  -0.287579
H    0.958960  -1.828291   0.267264
H    0.905878   1.674902   0.369593
H    6.634715   3.024242   1.731934
H    5.184785   3.843344  -1.223617
H    9.925295   2.412538  -1.460815
H   10.309930  -4.260520  -1.482131
H    5.374514  -3.677785  -1.678077
H    6.522182  -3.285686   1.515409

