%chk=mol_4959.chk
# wB97XD/Def2SVP opt freq pop=full gfinput

C 5 H 9 N 1 O 1

1 2
C    1.06584966  -0.34309986  -0.16091993
N    2.52530909  -0.40806982  -0.20220993
C    3.06303883  -0.49722981  -1.55684948
C    3.13321877   0.79504967  -0.77323967
C    4.42983818   1.27086961  -0.19589993
C    5.07834816   2.37010908  -0.99974966
O    4.60043859   2.87204885  -2.01260924
H    0.74799967   0.21524993   0.72537971
H    0.65753973  -1.35523951  -0.07984997
H    0.60958976   0.13274994  -1.03722966
H    2.37386918  -0.55732977  -2.39123917
H    3.95953846  -1.09564960  -1.66631937
H    2.47384906   1.60993946  -1.04960966
H    5.15759802   0.45356983  -0.11764996
H    4.25981855   1.66591942   0.81186974
H    6.04483747   2.72696900  -0.60378981

