%chk=mol_1237.chk
# wB97XD/Def2SVP opt freq pop=full gfinput

C 5 H 8 N 2

1 2
C    1.00098956  -0.05431998   0.00319000
C    2.51999903   0.00000000   0.00000000
C    3.00201893   1.36116946   0.00000000
C    3.39929867   2.48306894   0.00000000
C    4.12845850   3.71425867   0.11228996
N    3.41226888   4.77099848  -0.06499998
N    4.12943840   5.91630745   0.07298997
H    0.65772974  -1.09376955   0.00272000
H    0.58486980   0.44153985  -0.88069969
H    0.58869982   0.43947983   0.89003968
H    2.89558911  -0.53272974  -0.88084966
H    2.89935875  -0.53409982   0.87839967
H    5.20562840   3.68393850   0.34564987
H    3.50682878   6.72143745  -0.02927999
H    4.82868814   6.01535797  -0.66732979

