%chk=mol_7121.chk
# wB97XD/Def2SVP opt freq pop=full gfinput

C 6 H 9 N 1

1 2
C    0.84880966  -0.00427000   0.08297997
C    2.34483933  -0.18301994   0.03037999
C    2.79538894  -1.61430943   0.13625996
C    3.15732861   0.88341969  -0.11281995
C    4.66190815   0.91169965  -0.15974994
C    5.13422823   1.29462957  -1.49971950
N    5.52236795   1.60359931  -2.55020905
H    0.55206978   1.04710960   0.00846000
H    0.45435986  -0.39440984   1.02690959
H    0.37325984  -0.54308981  -0.74302971
H    2.29621911  -2.22234893  -0.62606972
H    2.53748918  -2.01745915   1.12108958
H    3.86991858  -1.74455929  -0.00700000
H    2.69811893   1.87088931  -0.18966994
H    5.10577822  -0.04398999   0.12947996
H    5.01443815   1.64471936   0.57523978

