%chk=mol_4107.chk
# wB97XD/Def2SVP opt freq pop=full gfinput

C 5 H 9 N 1 O 1

1 2
C    1.02247965   0.00887000   0.09457996
C    2.53512907   0.02870999  -0.01786999
N    3.13339877   1.12012959   0.78623974
C    4.46314859   0.61457980   1.16231954
C    4.29211855  -0.86036968   1.49409950
C    3.17502880  -1.22264957   0.56313980
O    2.82174873  -2.37170911   0.33648989
H    0.60268974  -0.80384970  -0.50872982
H    0.58900982   0.95042968  -0.25931990
H    0.69495970  -0.15329994   1.12813962
H    2.85300899   0.12823994  -1.06134951
H    2.57958913   1.24814951   1.63544941
H    5.14943790   0.74214971   0.31585988
H    4.87560844   1.17435956   2.00766921
H    5.19324780  -1.43614948   1.27507961
H    3.96177840  -1.00907958   2.52528906

