%chk=mol_7016.chk
# wB97XD/Def2SVP opt freq pop=full gfinput

C 6 H 13 N 1

1 2
C    1.12880957   0.08915997   0.21158992
C    2.63188910  -0.00231000  -0.04944998
C    2.88901877  -0.76004970  -1.35304952
C    3.22246885   1.40578949  -0.13072994
C    3.26258874   2.23587894   1.17765951
C    4.65749836   2.66380882   0.69717973
N    4.71230793   1.40887952  -0.08427997
H    0.92520964   0.59650975   1.16045964
H    0.67941976  -0.90811962   0.26248989
H    0.62105978   0.65255976  -0.57939976
H    3.09156895  -0.56297982   0.77650970
H    2.45973897  -0.23128991  -2.21157932
H    2.44829917  -1.76185942  -1.31493950
H    3.96199846  -0.87495965  -1.53900933
H    2.82522893   1.98329926  -0.97883964
H    3.27292871   1.64484930   2.10123920
H    2.52008915   3.03268886   1.26655948
H    4.66231823   3.56939864   0.07933997
H    5.42021799   2.75550890   1.47461951
H    5.16747808   1.49047935  -0.99187964

