%chk=mol_3703.chk
# wB97XD/Def2SVP opt freq pop=full gfinput

C 5 H 8 O 2

1 2
O    1.35703957  -0.05668998   0.50817978
C    2.63258886  -0.08265997  -0.12747996
C    2.47558904  -0.39493984  -1.59432948
C    1.32765949  -0.59598976  -2.25495911
C    3.37936854   1.19513953   0.14279996
C    2.70455885   2.49067903   0.52218980
O    3.30841899   1.64180934   1.50870943
H    1.53372943   0.21344991   1.42838943
H    3.19553876  -0.90753967   0.32623988
H    3.40505862  -0.48396981  -2.15161920
H    0.36660984  -0.53745979  -1.75114930
H    1.32544959  -0.83488971  -3.31255889
H    4.34639835   1.23559952  -0.34230986
H    1.62201941   2.54985905   0.49992979
H    3.20832896   3.42143869   0.29053989

