%chk=mol_2133.chk
# wB97XD/Def2SVP opt freq pop=full gfinput

C 5 H 10 N 2

1 2
N    1.21723962   0.04318998   0.61352980
N    2.33927917   0.06151998  -0.13670996
C    2.96325898   1.19848955  -0.19009992
C    2.58627915   2.48477912   0.50341982
C    3.37538886   3.49622869  -0.31601989
C    4.65573835   2.76414895  -0.69631970
C    4.21638870   1.33844960  -1.01386964
H    0.86867970  -0.91810966   0.67084974
H    0.46525982   0.56585979   0.15631995
H    2.93866873   2.44306898   1.53859949
H    1.51276946   2.68700910   0.47707981
H    2.81551909   3.76226878  -1.21987963
H    3.57232857   4.41424847   0.24371991
H    5.16261768   3.23383880  -1.54557943
H    5.35264826   2.76277900   0.15144995
H    3.96584845   1.21878946  -2.07038927
H    4.96753788   0.60196978  -0.72224975

