%chk=mol_5793.chk
# wB97XD/Def2SVP opt freq pop=full gfinput

C 6 H 7 N 1

1 2
C    1.03306961  -0.04726999  -0.06331997
C    2.36019921   0.08729997   0.02096999
C    3.05679893   1.36043942  -0.09837996
C    4.38232851   1.14672947  -0.01786999
C    4.73781824  -0.26343992   0.18973993
N    4.36211824  -1.26540947  -0.79186970
C    3.37128878  -0.97720963   0.23451991
H    0.57038975  -1.02489960   0.02592999
H    0.38028985   0.80312973  -0.22641991
H    2.57666898   2.31450915  -0.24766992
H    5.12950802   1.92546928  -0.08715996
H    5.47079802  -0.51815981   0.94427967
H    4.09517860  -0.82785970  -1.67399943
H    3.20494866  -1.70759928   1.01582968

