%chk=mol_5349.chk
# wB97XD/Def2SVP opt pop=full gfinput

C 5 H 9 N 1 O 1

1 2
C    1.894828  -0.117654  -0.143846
O    4.577238  -0.007124  -0.200160
C    5.468886   2.529493   0.000000
C    8.197651   2.529493   0.000000
C   10.446728   2.529493   0.000000
C   13.175492   2.529493   0.000000
N   14.117974   5.100238  -0.262955
H    1.322241  -2.096084  -0.305512
H    1.093396   0.933033  -1.734372
H    1.175693   0.632794   1.641454
H    4.753890   3.372197   1.751455
H    4.748976   3.632828  -1.597593
H   13.899919   1.372225  -1.555358
H   13.900372   1.720577   1.760469
H   13.462787   5.830788  -1.918450
H   16.034666   5.050293  -0.414436

