%chk=mol_3764.chk
# wB97XD/Def2SVP opt freq pop=full gfinput

C 5 H 8 O 2

1 2
O   -0.25395989  -0.49881983  -0.29848990
C    1.14152956  -0.32311985  -0.08272997
C    1.60489941   1.06575954  -0.44688982
C    0.79445970   2.02990913  -0.91932964
O    2.98153877   1.21382952  -0.32303989
C    3.53174877   2.40549922   0.07584997
C    4.85043812   2.60995913   0.06327998
H   -0.44807982  -1.42873943  -0.09524997
H    1.67594945  -1.05999959  -0.69120979
H    1.35110950  -0.51796979   0.97377962
H   -0.27179992   1.85598934  -1.02960968
H    1.16586959   2.99919868  -1.23020947
H    2.82959890   3.15097880   0.42130983
H    5.53055763   1.83534932  -0.27532989
H    5.27113819   3.55461884   0.38893983

