%chk=mol_6933.chk
# wB97XD/Def2SVP opt freq pop=full gfinput

C 5 H 4 N 2

1 2
C    0.96358961   0.10855996   0.00172000
C    2.16109920   0.03105999  -0.00080000
C    3.58245873  -0.06181998  -0.00381000
N    4.30239820   1.06217957  -0.00879000
N    5.57188797   0.62121975  -0.01046000
C    5.67443800  -0.74071974  -0.00671000
C    4.38411856  -1.21739960  -0.00229000
H   -0.09841996   0.18862994   0.00391000
H    6.31908798   1.30798948  -0.01423000
H    6.63466740  -1.23595953  -0.00751000
H    4.06648827  -2.24986911   0.00148000

