%chk=mol_2513.chk
# wB97XD/Def2SVP opt pop=full gfinput

C 5 H 10 O 2

1 2
C    1.719405  -0.408464  -0.306249
C    4.526858  -0.290470  -0.293323
O    5.689153  -0.625707  -2.718031
C    5.893546   1.837834  -1.600220
C    8.523988   2.571161  -0.864493
C    8.540334   4.205415   1.508965
O    7.345517   6.571050   1.050499
H    0.953197   0.783613   1.196197
H    1.087386  -2.351311   0.023792
H    0.924605   0.228468  -2.106156
H    5.376328  -1.188978   1.333825
H    4.813057   3.369854  -2.415656
H    9.373344   3.611815  -2.441810
H    9.682749   0.884316  -0.533678
H   10.480856   4.573969   2.120235
H    7.541368   3.273932   3.063114
H    8.329611   7.451776  -0.225596

