%chk=mol_3745.chk
# wB97XD/Def2SVP opt freq pop=full gfinput

C 5 H 8 O 2

1 2
O    0.30734989  -0.54033977   0.13757995
C    1.64972937  -0.93232965   0.41741985
C    2.38804913  -1.23620963  -0.89034969
C    1.86866927  -2.47861886  -1.56531942
C    2.64034891  -3.47655892  -2.01433921
C    2.37380910   0.17875993   1.16429961
O    1.79351938   1.16534948   1.61570942
H    0.08061997   0.15666994   0.78667969
H    1.62625933  -1.80796921   1.07360959
H    3.46480870  -1.33396947  -0.70132977
H    2.25711894  -0.39871985  -1.58738935
H    0.78913969  -2.54213905  -1.70088935
H    3.72200847  -3.45544887  -1.92399919
H    2.19665909  -4.33916855  -2.50380921
H    3.45058870   0.01843999   1.34631956

