%chk=mol_2518.chk
# wB97XD/Def2SVP opt freq pop=full gfinput

C 6 H 8 O 1

1 2
C    1.10063958  -0.02666999   0.06333998
C    2.43068910  -0.01805999   0.03391999
O    3.25166893  -1.13588965   0.09785996
C    4.51086855  -0.37976986  -0.00014000
C    4.38542843   0.72035968  -1.12972963
C    3.29985881   1.17359948  -0.08228997
C    4.45058870   0.88063967   0.95272964
H    0.56159979  -0.96436965   0.14657994
H    0.52450979   0.88927966   0.00364000
H    5.40361786  -1.00624967   0.02014999
H    4.01588869   0.37477985  -2.09982920
H    5.24262810   1.38460946  -1.28306949
H    2.86483884   2.16891909  -0.14479995
H    5.31295776   1.55604947   0.94850963
H    4.14457846   0.68954974   1.98557925

