%chk=mol_6522.chk
# wB97XD/Def2SVP opt freq pop=full gfinput

C 5 H 5 N 1 S 1

1 2
C    2.68354893  -1.09902954   0.40578985
C    2.16817904   0.11501995   0.16670993
C    2.92216897   1.32319951   0.07398997
C    2.37340927   2.56434894  -0.17291993
S    3.61627865   3.74867868  -0.20607992
C    4.76752806   2.51570916   0.10866996
N    4.29336834   1.29564953   0.23521991
H    2.04701924  -1.97484934   0.46269983
H    3.75113869  -1.24024951   0.54909980
H    1.09179962   0.18853994   0.03243999
H    1.33905959   2.83284879  -0.33126989
H    5.82291794   2.73670888   0.19684993

