%chk=mol_2738.chk
# wB97XD/Def2SVP opt pop=full gfinput

C 6 H 12 O 1

1 2
C    5.507172  -1.692080  -1.928295
C    4.645911  -0.029442   0.255378
C    5.789101   2.644917   0.181092
C    4.597742   4.271348   2.259111
C    8.615942   2.571785   0.512172
C   10.375919   2.884799  -1.709314
O    9.861101   4.925892  -0.005801
H    4.530448  -3.515136  -1.858451
H    7.539025  -2.066642  -1.839894
H    5.081832  -0.807348  -3.749557
H    5.127753  -0.965159   2.041150
H    2.579136   0.108659   0.187234
H    5.320864   3.511867  -1.644591
H    5.012971   3.509751   4.138236
H    2.543288   4.365967   2.036577
H    5.331447   6.204916   2.192120
H    9.244540   1.515182   2.145255
H    9.591022   3.015247  -3.595166
H   12.225300   2.020287  -1.611993

