%chk=mol_4475.chk
# wB97XD/Def2SVP opt freq pop=full gfinput

C 5 H 9 N 1 O 1

1 2
C    2.31254911   0.01979999   1.50153947
C    2.89495897   0.27828991   0.11904995
C    3.12648869   1.76070940  -0.13532996
N    2.00959921   2.49096894  -0.49409980
C    4.37813807   2.24077916  -0.02377999
C    4.76502800   3.63501859  -0.31018987
O    5.90790796   4.03018856  -0.11054996
H    2.16012931  -1.05414963   1.65141940
H    1.34540951   0.51760978   1.63017941
H    2.98718882   0.37741986   2.28755927
H    2.21906924  -0.12207995  -0.64638972
H    3.83134866  -0.28350988   0.01787999
H    1.12607956   2.04830933  -0.24552990
H    2.02314925   3.47199869  -0.22927992
H    5.20636797   1.60398936   0.27090991
H    3.98211861   4.29618835  -0.71055973

