%chk=mol_1244.chk
# wB97XD/Def2SVP opt pop=full gfinput

C 6 H 11 N 1

1 2
C    3.816415  -1.908359  -0.174913
C    4.261635   0.405327  -1.098347
C    5.694463   2.432153   0.292360
C    8.033320   3.300898  -1.186521
N    9.317105   5.333922   0.203146
C   11.646590   4.536628   1.449930
C   11.715886   6.070235  -0.945543
H    2.752424  -3.285667  -1.261430
H    4.485605  -2.477185   1.679041
H    3.529895   0.895655  -2.956571
H    6.260795   1.759543   2.170747
H    4.414986   4.037324   0.587894
H    7.434731   4.037835  -3.030611
H    9.264912   1.673088  -1.566281
H   12.198163   2.566928   1.369485
H   12.083873   5.486933   3.210248
H   12.191341   8.056072  -0.803927
H   12.290420   5.155230  -2.683298

