%chk=mol_0896.chk
# wB97XD/Def2SVP opt pop=full gfinput

C 5 H 6 O 1

1 2
O    3.168277  -0.404382   2.719713
C    4.444069  -0.053593   0.390058
C    5.504300   2.553946   0.374279
C    7.949586   3.092461   0.000000
C    8.836492   5.597010   0.000000
C    9.587242   7.717093   0.000000
H    2.504964  -2.117570   2.710774
H    3.083145  -0.278017  -1.153262
H    5.911952  -1.501898   0.208664
H    4.155659   4.069676   0.697649
H    9.316690   1.593738  -0.309273
H   10.253749   9.616079   0.005801

