%chk=mol_2816.chk
# wB97XD/Def2SVP opt freq pop=full gfinput

C 6 H 6 O 1

1 2
C    0.99999964   0.00000000   0.00000000
C    2.44399905   0.00000000   0.00000000
C    3.63415861   0.00000000   0.00000000
C    5.04015779   0.00000000   0.00000000
C    5.72955799  -1.14992952  -0.02442999
C    5.80793810   1.27663946   0.02711999
O    5.28657818   2.38439918   0.05064998
H    0.60601974   1.02087963   0.01169000
H    0.60596979  -0.52054983   0.87824970
H    0.60596979  -0.50029981  -0.88993967
H    5.21590805  -2.10749912  -0.04476998
H    6.81412745  -1.18042958  -0.02507999
H    6.90620708   1.16858959   0.02481999

