%chk=mol_7003.chk
# wB97XD/Def2SVP opt pop=full gfinput

C 5 H 10 N 2

1 2
C    4.969432  -0.967767   2.634032
C    4.771067   0.184343   0.017518
C    5.775815   2.830791   0.016781
N    8.038479   3.406024  -0.733743
N    8.288112   5.922213  -0.325827
C    5.849118   7.162176  -0.006066
C    4.245440   5.006073   0.986210
H    4.273861  -2.915167   2.619255
H    3.855627   0.104388   4.009734
H    6.931856  -0.983999   3.291771
H    2.799497   0.217564  -0.607207
H    5.850630  -0.948038  -1.337132
H    9.413728   6.776841  -1.638752
H    5.133101   7.821444  -1.833620
H    5.936934   8.758219   1.302380
H    2.335891   4.999157   0.203939
H    4.193718   4.939725   3.051454

