%chk=mol_6997.chk
# wB97XD/Def2SVP opt freq pop=full gfinput

C 7 H 10

1 2
C    1.03078961   0.00131000  -0.04808998
C    2.52153897   0.00091000  -0.02025999
C    3.34752870  -0.73982972  -1.04710960
C    2.72898912  -1.52244937  -2.15557909
C    3.30174875   0.77230972  -1.06067967
C    4.46936846   1.49239945  -0.64860976
C    5.44790792   2.10075927  -0.30573988
H    0.64441979   0.70911974   0.69236976
H    0.64710975  -0.99284965   0.20154993
H    0.62951976   0.29074991  -1.02448964
H    2.89124894  -0.01481999   0.99997962
H    4.25195837  -1.22469950  -0.69115973
H    1.85480928  -1.02558959  -2.58726907
H    2.41914892  -2.50801897  -1.79296935
H    3.45863867  -1.67073941  -2.95832896
H    2.73751879   1.23916960  -1.86251926
H    6.31316757   2.63774920  -0.00019000

