%chk=mol_1225.chk
# wB97XD/Def2SVP opt pop=full gfinput

C 5 H 8 N 2

1 2
C    1.889726   0.000000   0.000000
C    4.618491   0.000000   0.000000
C    6.867567   0.000000   0.000000
C    9.587488  -0.127840  -0.071942
C   10.862826  -2.650605  -0.128388
N   10.607921   2.101073  -0.095072
N   13.168708   2.146105  -0.171436
H    1.145079   1.929127   0.022053
H    1.145117  -0.983716   1.659652
H    1.145136  -0.945487  -1.681724
H    9.473575  -4.180773  -0.132715
H   12.069737  -2.856378   1.536517
H   12.024818  -2.806546  -1.830389
H   13.756224   3.966460  -0.458259
H   13.916661   1.651375   1.541223

