%chk=mol_6545.chk
# wB97XD/Def2SVP opt freq pop=full gfinput

C 4 H 10 N 2 S 1

1 2
C    2.78257895  -0.98520964   1.13150954
C    2.33796930  -0.07650997  -0.00629000
C    2.96124887   1.31544960   0.07691997
N    4.40362835   1.28814960  -0.09115997
C    5.12469816   1.28330946  -1.23150957
N    4.46806860   1.34434950  -2.40268922
S    6.78226757   1.23134959  -1.18851960
H    2.27331924  -1.95155931   1.06312966
H    2.54155898  -0.54314977   2.10338926
H    3.86043835  -1.17091954   1.09530962
H    1.24670959   0.02266999   0.03002999
H    2.58767915  -0.55060977  -0.96248966
H    2.75753880   1.77000928   1.05228961
H    2.52540898   1.96499932  -0.68903971
H    4.96448851   1.22518957   0.75111967
H    3.47448874   1.19393957  -2.47576904
H    5.01021814   1.29435956  -3.25641870

