%chk=mol_3050.chk
# wB97XD/Def2SVP opt pop=full gfinput

C 6 H 10 O 1

1 2
C    2.672451  10.896425  -1.402177
C    5.118021   9.482079  -1.349831
C    5.255517   6.951603  -1.331520
O    7.340490   5.430525  -1.305895
C    9.757279   6.628214  -1.299111
C   11.721479   4.588500  -1.370392
C   13.538924   4.399528  -3.123094
H    2.545952  12.143494   0.241790
H    1.035910   9.632236  -1.381144
H    2.570160  12.057019  -3.109620
H    6.809118  10.641463  -1.335715
H    3.581428   5.763684  -1.345693
H    9.994686   7.725918   0.441402
H    9.943267   7.878079  -2.943192
H   11.616619   3.180428   0.120848
H   13.707053   5.752421  -4.656058
H   14.893839   2.859193  -3.065627

