%chk=mol_5110.chk
# wB97XD/Def2SVP opt freq pop=full gfinput

C 4 H 9 N 1 O 2

1 2
C    0.22231992  -1.74166930   0.67626971
N    1.24548960  -1.16286945  -0.20450993
C    1.97355926  -2.25635934  -0.87405968
C    2.19178915  -0.34176984   0.60996974
C    2.88573909   0.68411976  -0.28537992
O    2.21668935   0.87633967  -1.45211947
O    3.88975859   1.30789959   0.02103999
H    0.65818977  -2.36986923   1.46162951
H   -0.48350981  -2.34789920   0.09759997
H   -0.36464986  -0.94847965   1.15252960
H    1.28749955  -2.83857894  -1.49935937
H    2.44986916  -2.93642879  -0.15838994
H    2.74756908  -1.86233938  -1.54122937
H    2.93986893  -0.96284968   1.11414969
H    1.64211941   0.24221991   1.35764945
H    1.45795941   0.24284992  -1.44112945

