%chk=mol_1185.chk
# wB97XD/Def2SVP opt freq pop=full gfinput

C 6 H 9 N 1

1 2
C    1.29623961  -0.34100986  -0.45741984
C    2.78817892  -0.43380982  -0.17634994
C    3.42052865   0.95514965  -0.05169998
C    4.90236807   0.88088971   0.22789992
C    5.40061760   1.08704960   1.45935953
C    5.79278803   0.62137973  -0.86135972
N    6.51137733   0.41318986  -1.74746931
H    0.86132967  -1.34275949  -0.52899981
H    1.10732961   0.17993993  -1.40131950
H    0.77843976   0.19760993   0.34273988
H    3.26797867  -1.00044966  -0.98313963
H    2.94276881  -0.99954963   0.75057971
H    2.91365910   1.51268947   0.74688977
H    3.25144887   1.52831948  -0.97273964
H    4.75274801   1.29620957   2.30556917
H    6.46952772   1.04634964   1.65702939

