%chk=mol_7081.chk
# wB97XD/Def2SVP opt freq pop=full gfinput

C 6 H 3 N 1

1 2
C    0.99999964   0.00000000   0.00000000
C    2.19015908   0.00000000   0.00000000
C    3.63415861   0.00000000   0.00000000
C    4.11617851   1.36116946   0.00000000
C    4.51345825   2.48306894   0.00000000
C    5.04118776   3.92468858   0.00000000
N    5.44846773   5.01174784   0.00000000
H   -0.06559997   0.00303000   0.00000000
H    4.01198864  -0.53451979  -0.87853968
H    4.01198864  -0.53451979   0.87853968

