%chk=mol_1615.chk
# wB97XD/Def2SVP opt freq pop=full gfinput

C 6 H 9 N 1

1 2
C    0.96941960   0.03745999  -0.20472993
N    2.28966928   0.52295977   0.16742992
C    3.46187878  -0.30514988  -0.39346984
C    4.24524832   1.05664957  -0.10275996
C    2.90039897   1.54560947  -0.81045967
C    2.92999887   0.90740967  -2.15476918
C    3.30663872  -0.34417987  -1.87071919
H    0.21932991   0.76359969   0.12517996
H    0.76370972  -0.89746970   0.32687989
H    0.78974974  -0.14501995  -1.26797950
H    3.74256873  -1.21171963   0.14048994
H    4.38158846   1.33615947   0.94951963
H    5.18316841   1.21900952  -0.64332980
H    2.58901882   2.58542895  -0.71809977
H    2.70190883   1.35339952  -3.10791874
H    3.46417856  -1.17714953  -2.53432918

