%chk=mol_0698.chk
# wB97XD/Def2SVP opt freq pop=full gfinput

C 5 H 10 O 1

1 2
C    0.99277961  -0.01102000  -0.03548999
C    2.52350903  -0.02387999   0.02397999
C    2.99261904  -0.72784972   1.30096948
C    3.09217882  -0.73680973  -1.20683944
C    3.00639892   1.42126942  -0.00559000
O    3.67555857   1.95125926   0.87522966
H    0.63265979   0.49144983  -0.94089961
H    0.56916982   0.52551979   0.82153970
H    0.58624983  -1.02841961  -0.03171999
H    2.61008906  -0.22381991   2.19591904
H    4.08626842  -0.73319972   1.37260950
H    2.64954901  -1.76789927   1.32939959
H    2.77183890  -0.24841991  -2.13453937
H    2.76545906  -1.78170931  -1.24722958
H    4.18823862  -0.72533971  -1.19784951
H    2.71205902   2.00062919  -0.89939964

