%chk=mol_4137.chk
# wB97XD/Def2SVP opt pop=full gfinput

C 5 H 7 N 1 O 1

1 2
C    1.836228   0.051136  -0.274407
C    4.676108  -0.034582   0.140388
N    5.428276  -2.222167   1.544587
C    6.678216  -1.637523   3.737935
O    7.585209  -3.105368   5.250566
C    6.746871   1.128677   3.923147
C    5.604795   2.014996   1.846943
H    1.217003  -1.571912  -1.400552
H    1.287640   1.776947  -1.276264
H    0.796331  -0.008334   1.516071
H    5.692252  -0.022752  -1.661882
H    5.260563  -4.034509   0.966916
H    7.600308   2.139661   5.463293
H    5.382734   4.001363   1.427140

