%chk=mol_2623.chk
# wB97XD/Def2SVP opt freq pop=full gfinput

C 6 H 6 O 1

1 2
C    0.99999964   0.00000000   0.00000000
C    2.19015908   0.00000000   0.00000000
C    3.59615874   0.00000000   0.00000000
C    4.35423851  -1.09208953  -0.06707997
C    5.78450775  -0.71118975  -0.04259998
O    5.81327772   0.72749972  -0.01757999
C    4.45554829   1.20743954   0.07595997
H   -0.06520998  -0.00249000  -0.00047000
H    3.99860835  -2.10962915  -0.12697995
H    6.28941774  -1.08883953   0.85070968
H    6.31403780  -1.05651963  -0.93435961
H    4.27642870   1.89978933  -0.75191975
H    4.34042835   1.73633933   1.02701962

