%chk=mol_3658.chk
# wB97XD/Def2SVP opt freq pop=full gfinput

C 5 H 10 O 2

1 2
O    2.11617923  -0.26583990  -1.43775940
C    2.36345911   0.05818998  -0.07612997
C    3.06291866   1.40272939  -0.00048000
C    2.24057913   2.57036901  -0.50637978
C    2.95071888   3.74251842   0.13658996
O    3.46870875   3.27559876   1.39111948
C    3.37592888   1.84247935   1.41604948
H    1.67920947  -1.13494956  -1.45198941
H    2.99198890  -0.72656971   0.35749987
H    1.40628946   0.07284997   0.45608982
H    3.99011850   1.36658955  -0.58803976
H    1.21050954   2.50815916  -0.13301995
H    2.20460916   2.64626908  -1.59717941
H    3.79835868   4.07473850  -0.47174981
H    2.28691912   4.59453869   0.30612990
H    4.31744862   1.42452943   1.78453934
H    2.57923913   1.57521939   2.11926913

