%chk=mol_5806.chk
# wB97XD/Def2SVP opt freq pop=full gfinput

C 4 H 6 N 2 O 1

1 2
N    1.25166953   0.01538999   0.68979973
C    2.38097906   0.08235997   0.08197997
N    3.00613880   1.27227962  -0.11279996
C    2.64943886   2.63229895   0.24886991
C    3.96910834   3.07940888  -0.41640985
C    4.18616819   1.58470941  -0.71827972
O    5.02444839   0.90330964  -1.25928962
H    0.94772965  -0.96415967   0.73517972
H    2.91412878  -0.79615968  -0.31682989
H    2.59443903   2.79417896   1.32868946
H    1.73819923   2.98685884  -0.24022990
H    3.85749841   3.70013857  -1.30845952
H    4.71302795   3.50777864   0.25929990

