%chk=mol_5402.chk
# wB97XD/Def2SVP opt freq pop=full gfinput

C 4 H 11 N 1 O 2

1 2
C    1.56612945   0.09302996   0.79312968
O    2.81112885   0.22071990   0.11670996
C    3.35701871   1.54154944   0.27484989
C    4.70536852   1.57485950  -0.45255983
O    4.49714804   1.29757953  -1.84973931
C    5.43259811   2.92035890  -0.30902988
N    4.67470837   4.02978849  -0.89953971
H    1.18934953  -0.92023969   0.63086981
H    0.83765966   0.80553967   0.39479986
H    1.69858932   0.24869990   1.86802924
H    3.48898864   1.76020944   1.34009957
H    2.65508914   2.25625920  -0.16899994
H    5.34752846   0.77222973  -0.07137997
H    3.87761855   0.54107982  -1.85954928
H    6.39540768   2.85810900  -0.82882971
H    5.62976789   3.13782883   0.74544972
H    4.40625858   3.73390865  -1.84378934
H    5.29744816   4.82637835  -1.02737963

