%chk=mol_2502.chk
# wB97XD/Def2SVP opt freq pop=full gfinput

C 5 H 6 O 2

1 2
C    1.05266964  -0.00254000   0.04618998
C    2.39234924  -0.01767999   0.05245998
C    3.27773857   1.17243958   0.08601997
O    4.51165819   0.74096972  -0.48230982
C    4.53198814  -0.61871976  -0.58368975
O    5.49529791  -1.25122952  -0.98945963
C    3.24008894  -1.22963953  -0.11121996
H    0.47703981  -0.92040962  -0.03267999
H    0.49606982   0.92738968   0.11731996
H    3.46694875   1.50837934   1.11023962
H    2.88547897   2.00277925  -0.50824982
H    2.84751892  -1.91082931  -0.86927968
H    3.41074872  -1.73151934   0.84507966

