%chk=mol_5121.chk
# wB97XD/Def2SVP opt pop=full gfinput

C 4 H 10 N 2 O 1

1 2
C   -0.671835  -2.131158   1.029485
N    1.679494  -2.605536   2.355279
C    4.032694  -2.630971   0.907900
C    4.505353  -5.138751  -0.489874
N    4.688959  -7.301108   1.227056
C    1.647218  -3.381967   4.846637
O   -0.244134  -3.679523   6.146013
H   -2.272849  -2.045288   2.333793
H   -0.999873  -3.650724  -0.331798
H   -0.525590  -0.325902   0.032428
H    5.608235  -2.267785   2.204309
H    3.976494  -1.065106  -0.445579
H    6.271774  -4.988631  -1.557134
H    2.985956  -5.492829  -1.850212
H    2.988696  -7.542993   2.109879
H    4.973910  -8.908188   0.201955
H    3.555671  -3.724253   5.612354

