%chk=mol_2295.chk
# wB97XD/Def2SVP opt pop=full gfinput

C 6 H 10 O 1

1 2
C    1.851421   0.052591  -0.046790
C    4.713789   0.070449   0.037114
C    5.951050   1.998858   1.856278
C    7.970695  -0.021959   2.419945
C    5.998350  -2.044684   1.640112
C    6.964548  -4.411547   0.225860
O    8.331575  -4.447357  -1.655570
H    1.166641  -1.563352  -1.142207
H    1.139410   1.775795  -0.943351
H    1.030694  -0.067142   1.849192
H    5.496533   0.203580  -1.882772
H    4.795558   2.491755   3.504346
H    6.646771   3.736877   0.982941
H    9.624508   0.084868   1.177091
H    8.613372  -0.108017   4.381406
H    4.830650  -2.612452   3.265617
H    6.321625  -6.218711   1.044338

