%chk=mol_4355.chk
# wB97XD/Def2SVP opt freq pop=full gfinput

C 5 H 11 N 1 O 1

1 2
C    1.11186957  -0.74420977   0.02459999
C    2.50336909  -0.20710991  -0.09500997
C    2.91253901   1.07466960   0.00898000
C    1.99805927   2.25581932   0.21019992
N    2.24575901   2.86393881   1.51510942
C    4.37989855   1.41856956  -0.13321994
O    4.88742781   1.92388928   1.09267962
H    1.11752963  -1.62739933   0.67103970
H    0.74307972  -1.04594958  -0.95948964
H    0.40732983  -0.03283999   0.46037984
H    3.25665855  -0.97687966  -0.26727989
H    0.94049966   1.99392915   0.12853995
H    2.19086909   2.99653888  -0.57431978
H    1.93466938   2.20538902   2.23260903
H    1.63471937   3.67529869   1.61396945
H    4.52004814   2.17667913  -0.91047966
H    4.98373842   0.54919982  -0.41097984
H    4.16188860   2.45936918   1.47987950

