%chk=mol_4347.chk
# wB97XD/Def2SVP opt freq pop=full gfinput

C 5 H 11 N 1 O 1

1 2
C    1.37526941  -0.82102972   0.12578996
C    2.86165881  -0.50309980   0.17852993
C    3.11987877   0.99371964  -0.00887000
C    4.60672808   1.33555949  -0.03938999
C    5.26013803   1.06137955   1.28753960
N    6.22992754   0.21002993   1.38168955
O    6.64755774   0.14558995   2.71397901
H    1.20971954  -1.88883924   0.30261987
H    0.95552969  -0.56988978  -0.85310966
H    0.82581967  -0.26097989   0.88987970
H    3.37970877  -1.07348955  -0.60044980
H    3.25847864  -0.83612967   1.14386964
H    2.62617898   1.55222940   0.79574972
H    2.66754889   1.32407951  -0.95247966
H    4.72689819   2.40575910  -0.24243991
H    5.11925840   0.78026968  -0.83134967
H    4.87897825   1.61398935   2.16470933
H    7.37014723  -0.50908983   2.67414904

