%chk=mol_5756.chk
# wB97XD/Def2SVP opt freq pop=full gfinput

C 4 H 4 N 2 O 1

1 2
N    0.91815966  -0.02383999   0.18261993
C    2.28078914  -0.00073000   0.04252999
C    3.05911899   1.08691955   0.06930997
C    4.54033804   1.05403960  -0.07315997
O    5.15917826   2.11620927  -0.04275998
C    5.26502800  -0.19496994  -0.25386989
N    5.80819798  -1.21265948  -0.40189987
H    0.45089981  -0.80651975  -0.27306989
H    0.44129986   0.86386973   0.03790998
H    2.68875885  -1.00362957  -0.08335996
H    2.64167905   2.07792926   0.20909992

