%chk=mol_1567.chk
# wB97XD/Def2SVP opt pop=full gfinput

C 5 H 12 N 2

1 2
C    5.899517  -2.532063  -1.284333
C    4.768195  -0.425793   0.337259
N    4.497057  -1.267175   2.991115
C    6.268392   2.121501   0.124136
N    5.157592   4.001967   1.847075
C    9.029168   1.894110   0.790019
C   10.930573   2.060765  -0.875964
H    6.079608  -1.914860  -3.250764
H    4.680908  -4.205397  -1.264888
H    7.768437  -3.111755  -0.614955
H    2.845795  -0.067199  -0.357347
H    6.256940  -1.616264   3.704544
H    3.582618  -2.963450   3.023505
H    6.077624   2.835062  -1.813759
H    4.768667   3.039001   3.485241
H    3.410370   4.462173   1.181929
H    9.485669   1.613732   2.773702
H   10.592992   2.367468  -2.872138
H   12.879920   1.910097  -0.250956

