%chk=mol_4890.chk
# wB97XD/Def2SVP opt pop=full gfinput

C 5 H 9 N 1 O 1

1 2
C    1.799227  -0.208437   0.050002
C    4.679453  -0.070373  -0.039287
O    5.453466  -1.383525  -2.283281
C    5.706293   2.695203  -0.006709
N    4.802286   4.216829   2.117570
C    8.494263   2.695770   0.071091
C   10.765203   2.701685   0.134624
H    1.047003   0.503215   1.838363
H    1.164430  -2.166061  -0.179165
H    0.961039   0.872600  -1.504014
H    5.447702  -1.132853   1.566016
H    5.083250  -0.314639  -3.731737
H    5.125542   3.632488  -1.762548
H    5.341557   3.378074   3.765090
H    2.882607   4.275865   2.127851
H   12.776797   2.708734   0.192714

