%chk=mol_2617.chk
# wB97XD/Def2SVP opt pop=full gfinput

C 6 H 12 O 1

1 2
C    3.887299  -0.653146  -2.791995
C    4.579695   0.139953  -0.116445
C    5.949935   2.676533  -0.029518
C    4.407389   4.930068  -0.891970
C    5.847285   7.108507   0.279736
O    6.943024   6.180066   2.577171
C    6.670526   3.483030   2.632823
H    3.001905  -2.521858  -2.772455
H    5.567398  -0.752508  -3.992972
H    2.550204   0.671420  -3.646907
H    5.792955  -1.317177   0.719986
H    2.855868   0.213539   1.032792
H    7.672628   2.574450  -1.182836
H    2.491491   4.846486  -0.103292
H    4.253056   5.101656  -2.946177
H    7.390984   7.731852  -0.949304
H    4.634534   8.730629   0.689731
H    8.443032   2.625699   3.262612
H    5.195008   3.029495   4.012871

