%chk=mol_3464.chk
# wB97XD/Def2SVP opt freq pop=full gfinput

C 5 H 6 O 2

1 2
C    4.73513842  -1.11620951  -0.06795998
O    3.78409863  -0.21385992  -0.61836976
C    3.81088853   1.06275964   0.00229000
C    5.01071787   1.96573925  -0.29155988
O    5.96753788   1.67302930  -0.99673963
C    4.98176813   3.26244855   0.35555986
C    4.96403837   4.33669853   0.89294970
H    4.60852814  -2.08562922  -0.55766982
H    4.56565809  -1.24626958   1.00534964
H    5.75698757  -0.77268976  -0.24761991
H    3.71271873   0.94351965   1.08810961
H    2.92038894   1.59517944  -0.35097986
H    4.96111822   5.29240799   1.36382949

