%chk=mol_1355.chk
# wB97XD/Def2SVP opt freq pop=full gfinput

C 6 H 13 N 1

1 2
C    0.95464963  -0.33608988  -0.49865982
C    2.43731904  -0.22318992  -0.81906968
C    3.22021866   0.35502985   0.36345989
N    4.64861822   0.43101984   0.04164998
C    4.95586824   1.64162934  -0.76822972
C    6.20458746   1.82899928   0.11363995
C    5.40075827   1.04625964   1.16838956
H    0.41311982  -0.75409973  -1.35309947
H    0.52669978   0.64608979  -0.27313989
H    0.78727973  -0.99041963   0.36285987
H    2.55996895   0.40979984  -1.70566940
H    2.82434893  -1.21726954  -1.07386959
H    3.09147882  -0.31195989   1.22519946
H    2.80169892   1.32884943   0.65127975
H    4.23845816   2.46870923  -0.69243973
H    5.15836811   1.44547951  -1.82501924
H    7.09509754   1.30476952  -0.25237989
H    6.46703768   2.85787892   0.37017986
H    5.98256779   0.34055987   1.76834929
H    4.81731796   1.68792939   1.84120941

