%chk=mol_5271.chk
# wB97XD/Def2SVP opt pop=full gfinput

C 7 H 14

1 2
C    2.382302  -0.913437  -0.515385
C    5.272015  -0.804815  -0.523435
C    6.273362  -1.544284  -3.132637
C    6.164759   1.841444   0.286596
C    8.985497   2.017509   0.558773
C   10.556482   3.279015  -1.454806
C   10.189044   4.550272   1.057283
H    1.632893  -0.452476   1.357409
H    1.715834  -2.808549  -1.011570
H    1.577770   0.424111  -1.874892
H    5.969494  -2.195975   0.848185
H    5.702816  -0.173061  -4.573402
H    5.549596  -3.400449  -3.693715
H    8.337850  -1.663696  -3.136964
H    5.323302   2.299948   2.125507
H    5.469718   3.264313  -1.052672
H    9.781960   0.413793   1.557153
H    9.611771   4.089292  -3.082257
H   12.398021   2.483837  -1.870999
H   11.784691   4.615202   2.340898
H    8.990296   6.209999   1.130056

