%chk=mol_1382.chk
# wB97XD/Def2SVP opt pop=full gfinput

C 6 H 13 N 1

1 2
C    1.523308  -1.135083   1.493658
C    4.018521  -1.111745   0.027741
C    4.291984  -3.581333  -1.450497
N    4.029803   1.112633  -1.632648
C    6.489225   1.580076  -2.794130
C    6.325121   3.929988  -4.364851
C    7.800336   5.967547  -4.073588
H    1.311602   0.580429   2.634259
H    1.448040  -2.751970   2.784889
H   -0.105503  -1.263528   0.220380
H    5.558384  -0.968976   1.408885
H    2.864900  -3.730395  -2.943173
H    4.065292  -5.212545  -0.195983
H    6.158901  -3.744001  -2.325384
H    3.562020   2.670939  -0.597531
H    7.022015   0.026475  -4.052102
H    7.957202   1.767990  -1.344219
H    4.905710   3.931386  -5.853257
H    9.250172   6.053133  -2.626530
H    7.577178   7.600648  -5.294805

