%chk=mol_0891.chk
# wB97XD/Def2SVP opt pop=full gfinput

C 5 H 8 O 1

1 2
O    2.051071  -0.140199   0.274029
C    4.679831   0.165105  -0.173496
C    5.401707  -0.933544  -2.691858
C    3.847917  -2.015639  -4.376209
C    5.248941   2.940130  -0.065196
C    6.853394   4.028575   1.565468
H    1.680118   0.781118   1.818276
H    5.691250  -0.866836   1.310449
H    7.403909  -0.836695  -3.150268
H    1.832392  -2.176114  -4.018654
H    4.562385  -2.763082  -6.146126
H    4.259726   4.120642  -1.428784
H    7.889361   2.935879   2.958196
H    7.168789   6.056024   1.524990

