%chk=mol_1505.chk
# wB97XD/Def2SVP opt pop=full gfinput

C 6 H 9 N 1

1 2
C    1.616339  -0.329889  -0.237860
C    4.478481  -0.089875   0.055671
N    5.765158  -1.475574  -1.951974
C    5.279800   2.626965  -0.031974
C    6.376030   3.839602   1.905468
C    7.080048   6.422575   1.722504
C    7.679091   8.606795   1.575805
H    0.634457   0.673177   1.284919
H    1.029239  -2.314310  -0.159228
H    0.956957   0.456312  -2.038051
H    5.024479  -0.936321   1.866804
H    5.117038  -0.882880  -3.664916
H    5.299019  -3.339618  -1.835151
H    4.927707   3.645131  -1.782768
H    6.762725   2.868056   3.671114
H    8.214186  10.541630   1.441653

