%chk=mol_2408.chk
# wB97XD/Def2SVP opt freq pop=full gfinput

C 6 H 8 O 1

1 2
C    0.92255968  -0.04382998  -0.00448000
C    2.41811895   0.01115000   0.00687000
C    3.10532880   1.16324949   0.02527999
C    4.60797834   1.20407951   0.03644999
O    5.28285837  -0.06557997   0.00718000
C    4.50815821  -1.19207954  -0.00342000
C    3.17107868  -1.21815956  -0.00266000
H    0.54741979  -1.07252955  -0.02892999
H    0.52636981   0.47116983  -0.88626963
H    0.51433980   0.43413985   0.89244968
H    2.58634901   2.11645913   0.03389999
H    4.95797825   1.77619934  -0.82958966
H    4.94577789   1.72950935   0.93636966
H    5.12242794  -2.08274913  -0.01436999
H    2.64440894  -2.16657925  -0.01146000

