%chk=mol_3870.chk
# wB97XD/Def2SVP opt pop=full gfinput

C 4 H 4 N 2 O 1

1 2
C    4.070357   0.807858  -0.906010
O    3.354264   1.532757   1.637202
C    5.652152   2.567873   2.025824
N    6.026242   4.896961   2.862595
N    7.418611   5.922421   0.964195
C    7.502307   4.425002  -1.172707
C    6.428640   2.194709  -0.431519
H    2.824593   1.563918  -2.370151
H    4.249484  -1.244649  -1.076520
H    8.022568   7.732041   1.160802
H    8.116771   5.171954  -2.970007

