%chk=mol_4249.chk
# wB97XD/Def2SVP opt freq pop=full gfinput

C 6 H 11 N 1

1 2
C   -1.65169942   0.63388973   0.22721991
C   -1.48055947  -0.85357970  -0.28375992
C   -0.13479994  -0.75765967   0.42371982
N    1.07711959  -1.24874961  -0.20929992
C    2.04513931  -0.17523994   0.14024994
C    1.19853950   1.02984965   0.62081975
C   -0.12072996   0.73540974  -0.05087998
H   -2.29171920   1.26413953  -0.39494982
H   -1.94265926   0.74130970   1.27754951
H   -1.45259941  -0.96376967  -1.37467957
H   -2.19113922  -1.57187939   0.13313995
H   -0.18801993  -0.93796968   1.50699937
H    1.01699960  -1.31867957  -1.22507954
H    2.73568892  -0.50421983   0.92341965
H    2.62995887   0.09028997  -0.74751967
H    1.11125958   1.04724967   1.71352935
H    1.63043928   1.97949922   0.29082990
H    0.01887999   0.90974963  -1.13530958

