%chk=mol_5170.chk
# wB97XD/Def2SVP opt freq pop=full gfinput

C 4 H 8 N 2 O 1

1 2
C    0.92144966   1.06268954   0.44152984
N    2.13870931   0.64389974  -0.20925993
C    3.17577887   1.48645949  -0.48201984
N    3.13966870   2.75937891  -0.64811981
C    4.50047827   0.83928967  -0.60507977
C    5.45030785   0.84646970   0.56269979
O    4.69133806  -0.32229987   0.23024991
H    0.24040990   0.21160991   0.53467977
H    0.41026986   1.83855927  -0.13560995
H    1.13328958   1.44387949   1.44563949
H    2.44923902  -0.28734988   0.06893998
H    2.17319918   3.07886887  -0.57140976
H    4.92116833   0.81266969  -1.60222948
H    5.16774845   1.40087950   1.44910944
H    6.51191759   0.83591968   0.35371986

