%chk=mol_0922.chk
# wB97XD/Def2SVP opt pop=full gfinput

C 4 H 6 O 2

1 2
O    1.807977  -0.018179  -0.332875
C    4.482411  -0.008239   0.024812
C    5.531965   2.707637   0.000000
O    4.662030   4.077972   2.160562
C    8.260730   2.707637   0.000000
C   10.509807   2.707637   0.000000
H    1.250621  -1.765703  -0.233306
H    5.325702  -1.137785  -1.491523
H    4.872923  -0.928611   1.838439
H    4.798487   3.706547  -1.657328
H    5.156949   3.120864   3.644601
H   12.523952   2.731316  -0.001304

