%chk=mol_3626.chk
# wB97XD/Def2SVP opt pop=full gfinput

C 5 H 6 O 2

1 2
O    1.767329   1.177961  -1.049365
C    3.753487   0.542918  -0.044371
C    5.987163   2.229499   0.005348
C    6.719658   3.739995  -2.298984
C    5.624430   5.070532  -0.027666
C    7.238577   6.700666   1.577865
O    9.321774   6.012787   2.309245
H    3.978308  -1.312339   0.876058
H    7.542558   1.494017   1.126239
H    5.547215   3.594864  -3.974434
H    8.718497   3.966063  -2.693578
H    3.706187   5.771394  -0.240033
H    6.458668   8.569662   2.070573

