%chk=mol_3447.chk
# wB97XD/Def2SVP opt pop=full gfinput

C 5 H 12 O 2

1 2
C    5.944455  -2.107101   0.503423
O    7.650084  -0.032862   0.583094
C    6.505439   2.226589  -0.353454
C    8.462477   4.339114  -0.223725
C    7.396426   6.860216  -1.136557
C    9.332640   8.975727  -0.901891
O    6.635471   6.658828  -3.712537
H    6.922010  -3.780492   1.219365
H    5.341462  -2.475900  -1.440047
H    4.300809  -1.737603   1.702379
H    4.859941   2.698359   0.812847
H    5.887461   1.921908  -2.306203
H   10.096731   3.788372  -1.375664
H    9.155761   4.512439   1.722466
H    5.716176   7.355872  -0.033732
H   11.016858   8.573612  -2.037144
H    9.910801   9.250228   1.064332
H    8.547042  10.753695  -1.613996
H    8.139561   6.338028  -4.721840

