%chk=mol_4623.chk
# wB97XD/Def2SVP opt pop=full gfinput

C 5 H 11 N 1 O 1

1 2
C    1.940938  -0.400849   0.212840
C    4.729228   0.003269  -0.450851
C    5.318653  -1.827649  -2.596011
O    6.847650  -3.566499  -2.416544
N    5.313891   2.624867  -1.282689
C    4.596192   4.495734   0.635912
C    8.030221   2.905227  -1.818162
H    1.422964   0.573948   1.961668
H    1.536839  -2.413142   0.488986
H    0.698613   0.269645  -1.302664
H    5.893394  -0.521338   1.183951
H    4.265962  -1.510401  -4.369689
H    2.545027   4.558851   0.889513
H    5.142909   6.401561   0.036736
H    5.484080   4.113291   2.466849
H    8.620571   1.686316  -3.381476
H    9.197883   2.470193  -0.164179
H    8.451895   4.841290  -2.420135

