%chk=mol_0184.chk
# wB97XD/Def2SVP opt pop=full gfinput

C 4 H 9 N 1

1 2
N    5.778972  -1.845620  -0.982091
C    4.465498   0.184494   0.325184
C    6.144350   2.455321   0.341096
C    6.396818   4.093392  -1.977731
C    5.019415   5.073934   0.306003
H    4.681437  -3.426187  -0.954142
H    7.386826  -2.289649  -0.022374
H    4.030635  -0.383973   2.266122
H    2.676722   0.574212  -0.639162
H    7.816663   2.173204   1.492033
H    5.300436   3.596224  -3.635701
H    8.246727   4.863796  -2.400406
H    5.935082   6.525357   1.424683
H    2.985767   5.275341   0.176500

