%chk=mol_3923.chk
# wB97XD/Def2SVP opt pop=full gfinput

C 5 H 11 N 1 O 1

1 2
C    1.826099  -0.011565   0.102291
C    4.690376  -0.024151   0.030311
C    6.043306   1.963709   1.704004
C    7.963476  -0.080446   2.489865
N   10.145430   0.005253   0.773654
C    6.031269  -2.114263   1.608629
O    6.998015  -4.248161   0.213501
H    1.066845  -1.639999  -0.923774
H    1.084400   1.702605  -0.787865
H    1.108513  -0.086549   2.041981
H    5.351931   0.029782  -1.937876
H    4.895695   2.632899   3.296816
H    6.775481   3.622699   0.709025
H    8.463233  -0.116369   4.493334
H    9.779201   0.352472  -1.080867
H   11.291039  -1.539258   0.885563
H    4.868312  -2.791466   3.187779
H    8.113407  -3.509146  -1.041674

