%chk=mol_6806.chk
# wB97XD/Def2SVP opt pop=full gfinput

C 5 H 8 N 2

1 2
C    1.859793   0.112647   0.026664
C    4.688335   0.052856  -0.014116
C    6.060219   2.190041  -0.018311
N    8.646518   2.271054  -0.086833
C    9.756240   0.100647   0.005178
N    8.643626  -2.214381   0.180941
C    5.941847  -2.489204  -0.065120
H    1.067506  -1.798755  -0.003685
H    1.126636   1.116715  -1.627319
H    1.173690   1.046889   1.740532
H    5.136143   4.025060   0.013285
H   11.837547   0.000737  -0.043180
H    9.707429  -3.773821  -0.109755
H    5.245785  -3.658113   1.494093
H    5.501786  -3.452397  -1.843107

