%chk=mol_3919.chk
# wB97XD/Def2SVP opt freq pop=full gfinput

C 5 H 11 N 1 O 1

1 2
C    0.84892964   0.01939999  -0.24164991
C    2.32375932  -0.01654999   0.06816997
C    2.62012911  -0.03764999   1.54796934
C    3.28180885  -0.75774968  -0.83889967
N    2.82297897  -1.51267946  -2.00647926
C    3.25074887   0.75126970  -0.85072970
O    4.37505817   1.40081954  -0.23685992
H    0.64435971   0.16299994  -1.30773962
H    0.36832985   0.84493971   0.29488990
H    0.37319985  -0.91516966   0.07260998
H    3.69247866  -0.13864994   1.75900924
H    2.11161923  -0.88261968   2.02598929
H    2.27067900   0.88698965   2.02024913
H    4.14786863  -1.21478951  -0.36045986
H    2.08906913  -1.02089965  -2.51432920
H    2.41476893  -2.40030909  -1.71444941
H    2.81900907   1.24039960  -1.71733928
H    5.19801807   1.16512954  -0.69626975

