%chk=mol_6760.chk
# wB97XD/Def2SVP opt freq pop=full gfinput

C 6 H 13 N 1

1 2
C    1.05976963   0.08292997  -0.09129997
C    2.55034924   0.05318998  -0.06015998
C    3.37774873  -0.67476976  -1.09082961
N    2.75666904  -1.38196945  -2.20651937
C    3.42577863   0.84208965  -1.02496958
C    2.81446886   1.67338943  -2.12630916
C    4.68050814   1.46470940  -0.45535985
H    0.69133973   0.86766970   0.57677978
H    0.66274977  -0.87283969   0.26485988
H    0.64082974   0.26732990  -1.08267963
H    2.88983893  -0.03188999   0.96919966
H    4.25752831  -1.19508958  -0.70977968
H    1.90141928  -0.92828971  -2.52035904
H    2.48115921  -2.32173896  -1.92249930
H    1.92835927   1.22436953  -2.58097911
H    3.54537868   1.83074939  -2.92708874
H    2.52230906   2.65457916  -1.73706937
H    5.10798836   0.86341965   0.35403988
H    4.46246815   2.45965910  -0.05365998
H    5.44217825   1.56585944  -1.23554945

