%chk=mol_5855.chk
# wB97XD/Def2SVP opt pop=full gfinput

C 5 H 5 N 1 O 1

1 2
N    2.207030  -0.138309  -1.156531
C    4.504861  -0.108470   0.012850
O    5.388535  -2.044797   0.922319
C    5.893111   2.363178   0.000000
C    4.632115   4.562989   0.128747
C    8.550066   2.363178   0.000000
C   10.799142   2.363178   0.000000
H    1.561953   1.306538  -2.218576
H    1.338058  -1.835170  -1.295199
H    2.589851   4.655964   0.256606
H    5.636108   6.353165   0.179316
H   12.811701   2.338744   0.009524

