%chk=mol_4680.chk
# wB97XD/Def2SVP opt freq pop=full gfinput

C 5 H 11 N 1 O 1

1 2
C    1.19759953  -0.55192977   0.41037983
C    2.38569927   0.11832996  -0.28771991
N    2.61531901  -0.54717976  -1.57720947
C    2.27671909   1.61612940  -0.51539981
C    1.19305956   2.35977888  -0.21942991
C    3.51593852   2.28385901  -1.07117963
O    3.74742866   1.86098933  -2.40787911
H    1.02097964  -0.10945996   1.39784944
H    1.38858950  -1.62034941   0.56398976
H    0.27457991  -0.46239981  -0.17481995
H    3.26899862  -0.05383998   0.34103987
H    1.74294925  -0.51949978  -2.11005926
H    2.78898883  -1.53849936  -1.40722954
H    0.28465989   1.93710923   0.19489993
H    1.18207955   3.43171883  -0.39852986
H    4.39312792   2.02906919  -0.46577981
H    3.43002868   3.37556887  -1.07895958
H    3.53271866   0.90314966  -2.41394925

