%chk=mol_3496.chk
# wB97XD/Def2SVP opt pop=full gfinput

C 6 H 6 O 1

1 2
O    1.744690   0.083205  -0.327206
C    3.964702   0.457314  -0.039590
C    6.491417  -0.898735   1.229985
C    6.663703   1.882848   2.484083
C    6.091438   2.736172  -0.392213
C    8.099291   1.470396  -1.920510
C    8.353308  -0.837470  -0.889853
H    6.303144  -2.558462   2.416450
H    5.211770   2.350744   3.887375
H    8.514917   2.422100   3.234607
H    5.508363   4.655548  -0.809502
H    9.114811   2.258922  -3.503874
H    9.619915  -2.334341  -1.450988

