%chk=mol_6269.chk
# wB97XD/Def2SVP opt freq pop=full gfinput

C 5 H 10 N 2

1 2
C    0.98024958  -0.07151998   0.41773984
C    2.41713929  -0.02697999  -0.09535997
C    2.70730901   1.29884958  -0.79371971
C    3.97127843   1.24881959  -1.64180934
C    4.48719835  -0.14435995  -1.88955927
N    3.86004853  -1.24792945  -1.61037934
N    2.63125896  -1.09918952  -1.06661963
H    0.79948974   0.73814976   1.13272953
H    0.77194971  -1.01970959   0.92534965
H    0.25747991   0.03645999  -0.39945984
H    3.09886885  -0.16350994   0.75279975
H    2.79887915   2.09959912  -0.04882998
H    1.86535931   1.58441937  -1.43842947
H    4.77668810   1.81407928  -1.15996957
H    3.79719877   1.71921933  -2.61648893
H    5.47925758  -0.22275992  -2.36367893
H    2.30524921  -1.99462926  -0.69605976

