%chk=mol_5537.chk
# wB97XD/Def2SVP opt freq pop=full gfinput

C 6 H 9 N 1

1 2
C    1.15724957   0.18159994  -0.02135999
C    2.60363889  -0.10126996  -0.05078998
C    3.31156874  -1.14955950  -0.48798984
C    4.69932795  -0.74608976  -0.15603995
C    4.84460831   0.77544975  -0.54511982
C    3.65747857   0.79424965   0.49337980
N    4.54099846  -0.19476993   1.26992953
H    0.57759976  -0.67845970  -0.37023985
H    0.92198968   1.03466964  -0.66433978
H    0.83287972   0.41665986   0.99695963
H    2.97082901  -2.06386924  -0.94336963
H    5.51463795  -1.44590950  -0.33477986
H    4.60624790   1.05055964  -1.57727945
H    5.77186775   1.27631950  -0.24313991
H    3.37601876   1.71709931   0.99920964
H    5.38986778   0.21728992   1.65237939

