%chk=mol_6826.chk
# wB97XD/Def2SVP opt freq pop=full gfinput

C 6 H 11 N 1

1 2
C    1.05177963  -0.05105998  -0.02524999
C    2.53895926  -0.03538999  -0.09728996
N    3.22039866  -0.53984982  -1.27797949
C    3.26023865   0.90829968  -1.03736961
C    4.57730818   1.57530940  -0.65737975
C    5.93396759   0.97517967  -0.94535965
C    5.48566818   2.19011927  -1.69799936
H    0.70385975   0.70508975   0.68521971
H    0.70044976  -1.02838957   0.31975988
H    0.58565980   0.15570995  -0.99434960
H    3.00395870  -0.26471990   0.85448968
H    2.56702900  -0.75409973  -2.03170919
H    2.63137913   1.50067949  -1.70010936
H    4.51242828   2.13658929   0.27586988
H    5.97505808   0.03251999  -1.47965944
H    6.70681763   1.09106970  -0.19510993
H    5.95707798   3.13691902  -1.46333957
H    5.22685766   2.06648922  -2.74309897

