%chk=mol_0535.chk
# wB97XD/Def2SVP opt freq pop=full gfinput

C 4 H 10 N 2

1 2
N    2.30405927  -0.46542984  -1.40385950
C    2.42092919   0.06695997  -0.04420998
C    3.20741868   1.37587953  -0.03912999
C    2.48152900   2.63757896  -0.56156981
C    3.15174890   3.34375858   0.62680978
N    3.22930884   2.02841926   1.30215955
H    1.74380934  -1.31667948  -1.37662959
H    3.22543883  -0.74731970  -1.73598933
H    2.92379880  -0.67867976   0.58348978
H    1.41410947   0.21406993   0.36403987
H    4.21693850   1.25679958  -0.45768982
H    1.38745952   2.60364914  -0.49791983
H    2.77531886   2.98660898  -1.55456936
H    4.13114834   3.77923846   0.39626986
H    2.54053903   4.08958864   1.14192951
H    4.08428860   1.87736928   1.83482933

