%chk=mol_5177.chk
# wB97XD/Def2SVP opt freq pop=full gfinput

C 4 H 8 N 2 O 1

1 2
C    0.59032983   2.34853911  -0.03827998
N    2.03661919   2.54097915  -0.10314996
C    2.69128895   1.43587947  -0.07453997
N    4.04372835   1.33070958  -0.13219996
C    4.92458820   2.48092914  -0.14040995
C    6.36990738   2.03134918  -0.18053992
O    6.72840738   0.85632968  -0.12166996
H    0.09410997   3.30819893  -0.21291992
H    0.28643990   1.98869920   0.95029968
H    0.23870991   1.65077937  -0.80642968
H    2.19817924   0.44884986  -0.00182000
H    4.49767828   0.42747983  -0.00986000
H    4.78576803   3.08351874   0.76268971
H    4.73927832   3.09992886  -1.02357960
H    7.11148739   2.84514904  -0.24999991

