%chk=mol_3882.chk
# wB97XD/Def2SVP opt freq pop=full gfinput

C 4 H 6 N 2 O 1

1 2
C    0.91672963  -1.04165959   0.94561964
C    1.15977955  -0.32835987  -0.34718987
C    0.87323964   1.13126957  -0.49757981
O   -0.25324991   1.49734950   0.31401989
N   -1.41863942   0.74342972   0.00957000
C   -1.18630958  -0.51822978  -0.18481994
N    0.00384000  -1.22725952  -0.19385992
H    1.49394941  -1.92874920   1.16563964
H    0.48617983  -0.52275980   1.79174924
H    1.91136932  -0.70150971  -1.02735960
H    1.73251927   1.72068942  -0.16468994
H    0.66175973   1.38871944  -1.54129934
H   -2.03561926  -1.17462957  -0.43604985

