%chk=mol_4518.chk
# wB97XD/Def2SVP opt pop=full gfinput

C 4 H 10 N 2 O 1

1 2
C    2.551565  -1.076275   1.787038
C    3.594429  -0.129068  -0.735916
C    4.291984  -2.327084  -2.527943
N    2.066680  -3.698591  -3.473373
N    1.764248   1.516713  -1.968452
C    1.485873   4.014572  -1.374851
O    2.760928   5.187657   0.155676
H    2.212831   0.504236   3.081595
H    3.888036  -2.366995   2.699530
H    0.749541  -2.066056   1.550142
H    5.304272   0.979369  -0.355439
H    5.577092  -3.648834  -1.583893
H    5.294086  -1.556530  -4.169549
H    1.225525  -4.627297  -2.008117
H    2.660243  -5.075559  -4.686464
H    0.533583   0.670172  -3.170658
H   -0.053271   4.904898  -2.460537

