%chk=mol_2717.chk
# wB97XD/Def2SVP opt freq pop=full gfinput

C 6 H 6 O 1

1 2
C    0.97179967  -0.02115999   0.00083000
C    2.31403923   0.00000000   0.00000000
C    3.01703882  -1.21762955   0.00000000
C    3.61211872  -2.24833918   0.00000000
C    3.13711882   1.21888959  -0.04809998
C    2.94565892   2.28301907   1.00888968
O    4.15102863   1.51929939   0.93100965
H    0.39577985   0.89769971  -0.01929999
H    0.41729987  -0.95465964   0.02170999
H    4.15011835  -3.16732883   0.00422000
H    3.34286857   1.55843937  -1.05868959
H    2.29275894   2.08953905   1.85130930
H    2.98921871   3.32076883   0.70225972

