%chk=mol_2660.chk
# wB97XD/Def2SVP opt freq pop=full gfinput

C 6 H 10 O 1

1 2
C    0.82182968   0.64336979   0.21770991
C    2.22726917   0.38701984  -0.30209988
C    3.23535895   1.20244956   0.43928984
O    4.35711861   1.61721945  -0.34589985
C    3.46772861   2.65718889   0.10109997
C    3.83542871   3.57178855   1.18536949
C    2.98956871   4.15625858   2.04460907
H    0.10135996   0.00209000  -0.29820988
H    0.53031981   1.68544936   0.05488998
H    0.75695974   0.44138983   1.29117954
H    2.25997925   0.60340977  -1.37730944
H    2.47164917  -0.67495978  -0.18235993
H    3.42467880   0.84637970   1.44311941
H    2.84262896   3.10846877  -0.66298974
H    4.89866829   3.78207850   1.28442943
H    1.91984928   3.98238850   1.99249923
H    3.35778880   4.82090855   2.81957912

