%chk=mol_1189.chk
# wB97XD/Def2SVP opt freq pop=full gfinput

C 6 H 11 N 1

1 2
C    1.12609959  -0.26833990   0.23383990
C    2.62526917  -0.18437994  -0.00951000
C    3.15765882   1.22640955   0.26553988
C    4.66402864   1.36397958  -0.01697999
C    5.08598804   2.83126903   0.06460997
C    5.46248770   0.56716979   0.93573964
N    6.09075785  -0.05909998   1.68237936
H    0.76555973  -1.28167951   0.03114999
H    0.58282977   0.42228985  -0.41894984
H    0.88344967  -0.02283999   1.27268946
H    2.83629894  -0.46475983  -1.04801965
H    3.12775874  -0.91532964   0.63352972
H    2.94230890   1.49997938   1.30695951
H    2.60862899   1.93518925  -0.36792985
H    4.86907816   1.00811958  -1.03440964
H    4.90230846   3.24675870   1.06223953
H    4.53367805   3.43677878  -0.66179973
H    6.15493774   2.94441891  -0.14922994

