%chk=mol_1750.chk
# wB97XD/Def2SVP opt freq pop=full gfinput

C 6 H 13 N 1

1 2
C    2.52993917  -0.89817971  -0.22959992
N    3.80282879  -0.23202991   0.01558999
C    3.84824848   1.07329965  -0.65441972
C    5.16583824   1.83893931  -0.38349986
C    6.39799738   1.08440959  -0.89270967
C    5.11415815   3.20090890  -1.04338956
C    5.21608782   4.36108828  -0.38064983
H    2.52457905  -1.87002921   0.27406988
H    2.36727905  -1.07285953  -1.29843950
H    1.69366944  -0.31550986   0.17025994
H    4.55535841  -0.82267970  -0.33565986
H    3.00971889   1.68695939  -0.29953989
H    3.71858859   0.93714964  -1.73621941
H    5.27453804   1.96633935   0.70235974
H    6.30180788   0.83121967  -1.95443928
H    6.55259752   0.15495995  -0.33547986
H    7.30560732   1.68680942  -0.77155972
H    4.99024820   3.22394872  -2.12467909
H    5.34453821   4.39326859   0.69685972
H    5.17527771   5.30825806  -0.90969968

