%chk=mol_6900.chk
# wB97XD/Def2SVP opt freq pop=full gfinput

C 6 H 13 N 1

1 2
C    2.84780884  -1.19326961  -0.46551982
C    2.30633903   0.14790994  -0.00092000
C    3.37290859   1.20079958   0.00003000
C    3.42875862   2.24506927  -1.08295965
C    2.99600887   2.62851906   0.30535987
N    3.89880848   3.45090890   1.11552966
C    3.79997849   3.14259887   2.53689909
H    2.05043936  -1.94318926  -0.48046982
H    3.63708878  -1.54999936   0.20557992
H    3.27288890  -1.11996949  -1.47263944
H    1.91004920   0.04061998   1.01529968
H    1.46933949   0.44207984  -0.64357978
H    4.31062841   0.84280968   0.41173983
H    2.67526913   2.23273897  -1.86178923
H    4.40769815   2.56318903  -1.42359948
H    1.93730927   2.84682894   0.43580985
H    3.70105863   4.44161797   0.97143966
H    4.09936857   2.10989928   2.73658895
H    2.78282905   3.29736876   2.90972900
H    4.47306824   3.79580855   3.10124874

