%chk=mol_2520.chk
# wB97XD/Def2SVP opt pop=full gfinput

C 6 H 12 O 1

1 2
C    1.853368   0.141748   0.092483
C    4.695440  -0.199744   0.025341
O    5.969494   1.742970   1.503750
C    7.779870  -0.121264   2.398270
C    5.990186  -2.295356   1.633555
C    4.501063  -3.353281   3.866606
C    7.212574  -4.385960   0.077063
H    0.909809  -1.462138  -0.812885
H    1.305574   1.855598  -0.930822
H    1.131436   0.310066   2.023613
H    5.367295  -0.120621  -1.937574
H    9.559425   0.021940   1.350663
H    8.158382   0.086304   4.419710
H    3.702068  -1.849267   5.041770
H    5.719143  -4.503576   5.082758
H    2.942417  -4.548722   3.215615
H    8.334486  -3.621868  -1.486043
H    5.774417  -5.633727  -0.733913
H    8.474760  -5.537616   1.246010

