%chk=mol_0372.chk
# wB97XD/Def2SVP opt freq pop=full gfinput

C 5 H 13 N 1

1 2
C    3.23401880  -1.15232968  -0.04423998
C    2.42661905  -0.12602995   0.74163973
C    2.92384887   1.32858944   0.58564973
C    1.95541930   2.26145911   1.32330954
N    4.29598808   1.45750940   1.09834957
C    4.88063812   2.77083898   0.85448968
H    2.74348903  -2.12959909   0.00522000
H    4.24163866  -1.27245951   0.36368987
H    3.31522870  -0.86689967  -1.09777963
H    2.41918921  -0.41294986   1.80119932
H    1.38676941  -0.18330993   0.39572987
H    2.90706897   1.57788944  -0.48274982
H    2.00208926   2.10884929   2.40746903
H    0.92204964   2.08005929   1.00531960
H    2.17121911   3.31418872   1.11634958
H    4.88955832   0.76148969   0.64942974
H    4.38926840   3.55108857   1.44236934
H    4.84782791   3.03810883  -0.20639992
H    5.93166733   2.75837898   1.16255951

