%chk=mol_2926.chk
# wB97XD/Def2SVP opt freq pop=full gfinput

C 6 H 10 O 1

1 2
C    0.98224968   0.00902000   0.00661000
C    2.51999903   0.00000000   0.00000000
C    3.02362895  -0.72402972   1.26057947
C    3.00392890  -0.73728973  -1.27201951
O    4.41781807  -0.93348968  -1.29073954
C    3.00201893   1.36116946   0.00000000
C    3.39929867   2.48306894   0.00000000
H    0.58121979   0.51551980  -0.88039964
H    0.58780980   0.53329980   0.88614964
H    0.57853973  -1.01037955   0.01905999
H    2.64622903  -0.24430990   2.17127919
H    4.11760855  -0.71651971   1.32375944
H    2.69373894  -1.76848936   1.27302957
H    2.72943902  -0.19023994  -2.18229938
H    2.54586911  -1.73089933  -1.33634949
H    4.82888794  -0.05337998  -1.22149956
H    3.75117850   3.48941851   0.00542000

