%chk=mol_3916.chk
# wB97XD/Def2SVP opt pop=full gfinput

C 5 H 7 N 1 O 1

1 2
C    1.998215  -0.103670   0.307647
C    4.495980   0.085208  -0.013190
C    6.081686   2.426219  -0.095318
C    8.474061   1.502483  -1.399437
N    8.518828  -1.176543  -0.983319
C    6.163153  -2.134313  -0.451059
O    5.565584  -4.348770  -0.381989
H    1.073931  -1.938292   0.296630
H    0.827870   1.553714   0.591843
H    6.509332   3.042006   1.835567
H    5.199695   3.988267  -1.121836
H    8.396261   1.830238  -3.442080
H   10.189498   2.364614  -0.636913
H    9.888105  -2.363991  -1.594060

