%chk=mol_3218.chk
# wB97XD/Def2SVP opt freq pop=full gfinput

C 6 H 14 O 1

1 2
C    1.45600939   0.25889990  -0.48662981
C    2.95497894   0.25217992  -0.26243991
O    3.39106870   1.59883940  -0.09485997
C    4.80077839   1.67758930   0.11388996
C    5.20729828   3.14730883   0.27598989
C    6.69027710   3.25537896   0.62514973
C    4.89818811   3.95351863  -0.98772967
H    1.07725954  -0.75783974  -0.62264979
H    1.20120955   0.85250968  -1.37074947
H    0.94109964   0.71735972   0.36401987
H    3.45848870  -0.19533993  -1.12644947
H    3.19528866  -0.32886985   0.63468975
H    5.32387829   1.22716951  -0.73816973
H    5.05860806   1.11671960   1.01999962
H    4.62029839   3.58299875   1.09491956
H    7.31730747   2.83855891  -0.17014994
H    6.91202736   2.71416903   1.55083942
H    6.98001719   4.30106878   0.77228975
H    5.43707800   3.55475879  -1.85367930
H    5.19119787   5.00098801  -0.85997969
H    3.82784867   3.93566847  -1.21662951

