%chk=mol_3777.chk
# wB97XD/Def2SVP opt freq pop=full gfinput

C 5 H 6 O 2

1 2
O    2.17513919   1.81380939   1.61610949
C    1.90195930   1.24429953   0.57206976
C    2.95856881   0.83884966  -0.42832983
O    2.63046908   0.26003990  -1.45395947
C    4.36364841   1.16629958  -0.07788997
C    5.45255804   0.14307995  -0.30498990
C    5.39157820   1.37037957  -1.16750968
H    0.87664962   0.97758967   0.27011988
H    4.48296833   1.79451942   0.80240971
H    5.18789816  -0.80551970  -0.76015973
H    6.24673748   0.07555997   0.42995986
H    6.14511776   2.13518929  -1.01858962
H    5.08597851   1.24551952  -2.20088935

