%chk=mol_5149.chk
# wB97XD/Def2SVP opt freq pop=full gfinput

C 4 H 9 N 1 O 2

1 2
C    1.06686962  -0.33308989  -0.38408986
N    2.40222907  -0.36039984   0.19189993
C    3.02008867  -1.67227936   0.31266987
C    3.08249879   0.83982968   0.34352988
O    2.57867908   1.93674934   0.07992997
C    4.52091837   0.79230970   0.86833966
O    5.09272814   2.09206915   0.97212964
H    0.60748976   0.65499979  -0.29740989
H    0.43545982  -1.05885959   0.13662995
H    1.13840950  -0.60041976  -1.44198954
H    2.32406902  -2.35037923   0.81564969
H    3.94786835  -1.64380932   0.88531971
H    3.23472881  -2.04809928  -0.69222975
H    5.14341784   0.20949993   0.18338993
H    4.53062868   0.34255987   1.86607921
H    4.39264822   2.71037889   0.67497975

