%chk=mol_3317.chk
# wB97XD/Def2SVP opt freq pop=full gfinput

C 6 H 10 O 1

1 2
C    1.00361967   0.12616995  -0.15360993
O    2.41820908   0.06954997  -0.28412989
C    3.07763863   1.26533961  -0.19219993
C    4.40440845   1.37163949  -0.30301988
C    4.86124802   2.77819896  -0.11927995
C    3.55842876   3.57397866  -0.20075992
C    2.42671919   2.58299899   0.08378997
H    0.61865979  -0.89633971  -0.20960993
H    0.55948985   0.69848973  -0.97426963
H    0.71219975   0.54394978   0.81537968
H    5.07024813   0.53745979  -0.47220981
H    5.34545803   2.89704895   0.85531968
H    5.55998802   3.08541894  -0.90279967
H    3.44130874   3.98687863  -1.21143949
H    3.54886866   4.41982841   0.49445984
H    1.57280934   2.78806901  -0.56790978
H    2.10596919   2.64254904   1.12931955

