%chk=mol_2289.chk
# wB97XD/Def2SVP opt pop=full gfinput

C 6 H 10 O 1

1 2
C    1.782314   0.019143   0.203694
C    4.657665   0.014645  -0.051268
C    5.978942   1.986253   1.706158
C    7.949851  -0.056011   2.343298
C    5.969286  -2.053830   1.596308
C    5.478562   0.061756  -2.909045
O    5.028391  -1.561821  -4.513989
H    1.186484  -0.010866   2.186111
H    0.959660  -1.638374  -0.723198
H    0.973209   1.711147  -0.671155
H    4.851834   2.582349   3.340280
H    6.733340   3.675196   0.784142
H    9.609144  -0.026759   1.104715
H    8.581757  -0.111191   4.308632
H    6.718203  -3.689917   0.579088
H    4.839797  -2.734396   3.194960
H    6.560846   1.756028  -3.464038

