%chk=mol_4518.chk
# wB97XD/Def2SVP opt freq pop=full gfinput

C 4 H 10 N 2 O 1

1 2
C    1.35022950  -0.56953979   0.94565964
C    1.90208936  -0.06829998  -0.38942987
C    2.27121902  -1.23143947  -1.33772957
N    1.09363961  -1.95720935  -1.83802938
N    0.93359965   0.80260974  -1.04165959
C    0.78628969   2.12441921  -0.72753972
O    1.46101940   2.74518895   0.08237997
H    1.17097950   0.26682991   1.63070941
H    2.05745935  -1.25255954   1.42852938
H    0.39663985  -1.09330964   0.82029969
H    2.80689883   0.51825982  -0.18808994
H    2.95126891  -1.93087935  -0.83815968
H    2.80150890  -0.82367969  -2.20642924
H    0.64851975  -2.44865918  -1.06264961
H    1.40773940  -2.68586898  -2.47996926
H    0.28235987   0.35463986  -1.67783940
H   -0.02818999   2.59555912  -1.30205941

