%chk=mol_0871.chk
# wB97XD/Def2SVP opt pop=full gfinput

C 4 H 6 O 2

1 2
O    1.939029   0.131185  -0.238238
C    4.616072   0.036150  -0.114253
C    5.614433  -2.326385   1.241909
O    6.495083  -1.598576   3.730489
C    6.465055   1.003331   3.660097
C    5.471343   2.052772   1.608176
H    1.361321  -1.432375  -1.006090
H    5.386853   0.212292  -2.024218
H    7.240164  -3.118936   0.232644
H    4.176899  -3.797801   1.454598
H    7.195472   1.916523   5.325172
H    5.237924   4.050533   1.282897

