%chk=mol_6258.chk
# wB97XD/Def2SVP opt pop=full gfinput

C 5 H 12 N 2

1 2
C    1.862571  -0.151348   0.207643
C    4.705191   0.131941   0.021316
C    5.941129   2.153608   1.715418
C    7.937455   0.106354   2.327954
C   10.377317   0.080427   0.754492
N   12.029695   2.185204   1.440973
N    6.061259  -1.817198   1.499592
H    1.223314  -1.838647  -0.806460
H    0.919711   1.483813  -0.639200
H    1.222898  -0.302545   2.170691
H    5.339081   0.236329  -1.951823
H    4.809618   2.722018   3.356286
H    6.607352   3.850827   0.744439
H    8.369332  -0.034374   4.352210
H    9.973558   0.175121  -1.274696
H   11.396844  -1.689188   1.100331
H   11.196041   3.851659   0.951704
H   13.653517   2.080040   0.409674
H    6.769074  -3.281358   0.469843

