%chk=mol_0627.chk
# wB97XD/Def2SVP opt pop=full gfinput

C 5 H 8 O 1

1 2
C    1.803441  -0.023622   0.091727
C    4.666225   0.034620   0.055482
C    5.953960   2.059272   1.764721
C    7.888321  -0.024283   2.445948
O   10.020594  -0.023905   3.276445
C    6.037713  -2.102698   1.549216
H    1.094926  -1.620988  -1.014235
H    1.030505   1.710221  -0.731740
H    1.067620  -0.200670   2.017812
H    5.350438   0.152085  -1.902897
H    4.850757   2.691631   3.395006
H    6.742373   3.682642   0.764734
H    6.888430  -3.583110   0.390833
H    4.964688  -2.942492   3.105500

