%chk=mol_0699.chk
# wB97XD/Def2SVP opt pop=full gfinput

C 5 H 12 O 1

1 2
C    1.832826  -0.195795  -0.002967
C    4.716341  -0.001701  -0.018444
C    5.769579  -1.459946  -2.291368
C    5.646993   2.761079  -0.042235
C    4.727528   4.315473   2.204328
O    8.345730   2.808832  -0.021637
H    1.034285   0.584492   1.737943
H    1.226205  -2.172599  -0.116143
H    1.004200   0.817684  -1.607269
H    5.442827  -0.935773   1.684464
H    5.158291  -0.606564  -4.076479
H    5.120496  -3.426206  -2.268692
H    7.838678  -1.493545  -2.270884
H    5.042564   3.694830  -1.790591
H    5.239965   3.405438   3.992330
H    2.680350   4.593962   2.163528
H    5.629551   6.179650   2.207918
H    8.910512   1.979923   1.517809

