%chk=mol_3956.chk
# wB97XD/Def2SVP opt pop=full gfinput

C 5 H 7 N 1 O 1

1 2
C    1.921247   0.060377   0.126215
C    4.722879  -0.032806  -0.036680
C    6.157956  -2.110389  -0.207227
C    8.792215  -1.244347  -0.320932
O   10.639517  -2.595010  -0.483845
N    8.745652   1.342745  -0.208739
C    6.247283   2.340067  -0.022771
H    1.093055  -1.834697   0.076477
H    1.142680   1.136727  -1.458680
H    1.331766   0.967502   1.888857
H    5.613942  -4.066993  -0.259497
H   10.360065   2.360381  -0.258477
H    5.867581   3.546014  -1.655891
H    6.062317   3.401280   1.739209

