%chk=mol_3154.chk
# wB97XD/Def2SVP opt pop=full gfinput

C 5 H 8 O 2

1 2
C    6.748533   7.934053   4.338093
C    7.450756   6.402713   2.466111
O    8.252397   3.988815   2.935576
C    8.896074   2.634902   0.655319
C   11.509056   3.110357  -0.512513
O   12.075558   0.432313  -0.546358
C    9.896912  -0.059942   1.037271
H    6.104590   9.841523   3.961660
H    6.800841   7.300503   6.287610
H    7.412867   6.981367   0.505502
H    7.350770   2.671695  -0.730304
H   12.855712   4.146966   0.665694
H   11.485680   3.910316  -2.417772
H    8.704816  -1.557607   0.258609
H   10.462110  -0.547170   2.966171

