%chk=mol_5504.chk
# wB97XD/Def2SVP opt freq pop=full gfinput

C 5 H 10 N 2

1 2
C    0.51124984   0.26528990   0.23366991
C    1.96385932  -0.05078998   0.14446995
C    2.52557898  -0.73994970  -1.06861961
C    2.84285879   0.71112972  -0.81452966
N    4.20499849   1.08001959  -0.40102986
N    4.10353851   2.28769898   0.19923992
C    5.07299805   2.50907922   1.02281964
H    0.35112986   1.10957956   0.91127968
H   -0.03758999  -0.59618974   0.62683976
H    0.08430997   0.52478981  -0.74075973
H    2.37867904  -0.30675986   1.11284959
H    1.85809922  -0.97283965  -1.88952923
H    3.30617857  -1.47520947  -0.91068965
H    2.35992908   1.42896950  -1.47510946
H    4.79265833   1.14972961  -1.23664951
H    5.10758781   3.45991874   1.57715940
H    5.88693762   1.78906929   1.21931958

