%chk=mol_1175.chk
# wB97XD/Def2SVP opt pop=full gfinput

C 6 H 7 N 1

1 2
C    1.960043  -0.282117  -0.563025
C    4.769839  -0.045372   0.030349
C    5.720938   2.707637   0.000000
C    4.579279   4.173989   2.093590
C    3.653275   5.368901   3.785121
C    8.448568   2.745186   0.068503
N   10.622774   2.775101   0.123097
H    1.415254  -2.276988  -0.625329
H    1.518225   0.557507  -2.401181
H    0.797068   0.642507   0.874792
H    5.812854  -1.158175  -1.377308
H    5.147935  -0.925663   1.871415
H    5.113202   3.576023  -1.784072
H    2.840202   6.432760   5.292348

