%chk=mol_5045.chk
# wB97XD/Def2SVP opt freq pop=full gfinput

C 5 H 11 N 1 O 1

1 2
C    1.35887957  -0.01899999  -0.74956971
N    2.81405902   0.03526999  -0.77070969
C    3.31836891   0.92157960   0.27434990
C    4.81253815   0.89194971   0.20397992
C    5.56587791   1.88676929  -0.64420980
C    5.61185789   1.99041927   0.85421968
O    6.84795761   1.60126948   1.46913946
H    1.00987959  -0.71489978  -1.51791942
H    0.91883969   0.96114963  -0.95663965
H    0.98887968  -0.38147986   0.21465993
H    3.12422895   0.38096985  -1.67792928
H    3.00432897   0.56747979   1.26331949
H    2.93581891   1.94107926   0.13716996
H    5.19816780  -0.11847995   0.27956989
H    5.00768805   2.64592886  -1.18014956
H    6.45207739   1.54512942  -1.16558945
H    5.07383823   2.81490898   1.31171942
H    7.20726728   0.78076971   1.09146965

