%chk=mol_1675.chk
# wB97XD/Def2SVP opt pop=full gfinput

C 5 H 12 N 2

1 2
C    4.534738  -1.959022  -1.242703
N    3.973981   0.507826  -0.151839
C    6.214365   2.153003  -0.092691
C    6.470592   4.231267  -2.004640
C    5.892241   4.879084   0.699482
N    7.850867   6.116496   2.229669
C    7.711878   5.376214   4.877081
H    2.800139  -3.078553  -1.348093
H    5.896569  -2.994498  -0.080899
H    5.288115  -1.776173  -3.159622
H    3.298064   0.257343   1.635823
H    7.954046   1.243591   0.522453
H    4.976046   4.470620  -3.382818
H    8.343329   4.631983  -2.722698
H    3.974226   5.517641   1.077465
H    7.677447   8.031865   2.096519
H    8.062535   3.349445   5.101013
H    5.866957   5.832167   5.696693
H    9.162129   6.380698   5.957003

