%chk=mol_1932.chk
# wB97XD/Def2SVP opt freq pop=full gfinput

C 6 H 11 N 1

1 2
N    1.01225960   0.03720999  -0.09823997
C    2.46104908  -0.01636999   0.04449998
C    3.00113893   1.12490952   0.90425968
C    4.41594839   0.66626972   1.24478948
C    4.26175833  -0.82305968   1.38287950
C    5.12868786  -1.62850940   2.00672913
C    2.95975900  -1.27447951   0.76835972
H    0.69662970  -0.72949970  -0.69035971
H    0.74524975   0.89943963  -0.57127982
H    2.91677880   0.03407999  -0.95305967
H    2.41231918   1.24240947   1.82410944
H    2.99690890   2.08452916   0.37679988
H    5.09594774   0.89413965   0.41668984
H    4.78426838   1.14463961   2.15625930
H    4.94467831  -2.69475913   2.09536934
H    6.03896809  -1.23909950   2.45235920
H    3.09250879  -2.10706925   0.06836998
H    2.26545906  -1.57944942   1.56176937

