%chk=mol_3363.chk
# wB97XD/Def2SVP opt pop=full gfinput

C 6 H 12 O 1

1 2
C    6.095898  -2.274399   1.740872
O    5.571498  -0.818592  -0.458126
C    6.861784   1.400797  -0.738902
C    8.602411   2.442622   0.780419
C    9.871249   4.935246   0.217148
C    9.285378   6.844134   2.303879
C   12.722752   4.566504  -0.052100
H    4.913817  -3.969389   1.679116
H    5.614320  -1.223220   3.456819
H    8.074913  -2.877373   1.774831
H    6.255787   2.292389  -2.484631
H    9.175849   1.509872   2.516416
H    9.154211   5.703023  -1.571666
H    9.985312   6.200702   4.143470
H    7.245078   7.153728   2.472574
H   10.167407   8.670687   1.892447
H   13.564152   3.828906   1.690832
H   13.653328   6.361574  -0.495581
H   13.157199   3.237819  -1.579849

