%chk=mol_5777.chk
# wB97XD/Def2SVP opt pop=full gfinput

C 5 H 7 N 1 O 1

1 2
N    2.185525   6.145786   1.224750
C    4.289565   5.606137   1.532776
C    6.948296   4.950553   1.999330
O    8.047701   3.820743  -0.197136
C   10.653312   3.119277   0.162384
C   12.132495   2.782376  -2.236982
C   12.584952   5.054356  -0.599270
H    7.076363   3.617427   3.579538
H    8.016445   6.654595   2.489015
H   11.112024   1.839951   1.701094
H   11.154656   3.055555  -4.016008
H   13.567213   1.323148  -2.281296
H   14.333705   5.135766   0.461981
H   11.932071   6.867567  -1.292138

