%chk=mol_6529.chk
# wB97XD/Def2SVP opt freq pop=full gfinput

C 5 H 3 N 1 S 1

1 2
C    0.87023968   0.16801995   0.00201000
C    2.06822920   0.08160997  -0.00071000
C    3.49142861  -0.01663999  -0.00395000
N    4.24834871   1.05984962  -0.00940000
C    5.57961798   0.69022977  -0.01151000
C    5.82092810  -0.66622972  -0.00763000
S    4.33144808  -1.51557934  -0.00111000
H   -0.19130993   0.25221992   0.00439000
H    6.34165716   1.46023953  -0.01593999
H    6.76970768  -1.18260956  -0.00829000

