%chk=mol_1414.chk
# wB97XD/Def2SVP opt freq pop=full gfinput

C 5 H 12 N 2

1 2
C    0.93491960  -0.17664994   0.01674999
C    2.43666911   0.07127997  -0.11645995
C    3.07879901  -0.84568965  -1.15536964
N    2.72335911   1.48517942  -0.41652983
C    2.13411903   2.07717919  -1.60975945
C    3.48628879   2.23186922   0.44713983
N    3.80146861   3.47429872   0.37322986
H    0.49133980   0.50788981   0.74783969
H    0.74416977  -1.20106959   0.35403988
H    0.40689984  -0.03930999  -0.93219966
H    2.88229895  -0.18923993   0.85259968
H    2.63981891  -0.71447974  -2.14933920
H    2.95082879  -1.89587927  -0.87236965
H    4.15280819  -0.64652979  -1.23713958
H    1.65571940   1.33888948  -2.25954914
H    2.90311885   2.57680917  -2.20831919
H    1.37507951   2.81391907  -1.32743943
H    3.86406851   1.65632939   1.30889952
H    3.39260864   3.89127851  -0.46266985

