%chk=mol_4616.chk
# wB97XD/Def2SVP opt freq pop=full gfinput

C 4 H 9 N 1 O 2

1 2
C    0.01354000   1.66290927   1.08232963
C    0.82692969   0.43244982   0.72312975
C    2.16889930   0.80121970   0.10183996
O    2.86693883  -0.41688985  -0.20228992
C    4.07817841  -0.28039989  -0.78948969
N    4.61553860   0.85432971  -1.07833958
O    5.86255789   0.62714982  -1.67470932
H   -0.94500965   1.36919951   1.52096939
H   -0.19065993   2.27057910   0.19521993
H    0.54416978   2.28451920   1.81028926
H    0.26079991  -0.19802992   0.02671999
H    0.99151963  -0.17992993   1.61801934
H    2.76099896   1.39342952   0.80907971
H    2.01082921   1.37357950  -0.81953973
H    4.53102827  -1.26616955  -0.98185962
H    6.17781782   1.53305936  -1.85374939

