%chk=mol_2524.chk
# wB97XD/Def2SVP opt pop=full gfinput

C 5 H 10 O 2

1 2
C    1.913971   0.242414   0.245948
C    4.724977  -0.189199  -0.085359
O    6.174227   1.792311   1.133325
C    7.682323  -0.059243   2.461822
C    5.949198  -2.214778   1.608705
C    7.175385  -4.386640   0.212859
O    8.492902  -5.945570   1.962311
H    0.841703  -1.377421  -0.465855
H    1.305631   1.917789  -0.804060
H    1.414006   0.519070   2.234998
H    5.247713  -0.315414  -2.087996
H    9.619368  -0.097037   1.739342
H    7.705869   0.292832   4.498058
H    4.698539  -2.875199   3.127081
H    8.500158  -3.751692  -1.244498
H    5.735716  -5.556097  -0.701618
H   10.057765  -5.094891   2.415013

