%chk=mol_3057.chk
# wB97XD/Def2SVP opt freq pop=full gfinput

C 6 H 8 O 1

1 2
C    0.88059962   0.19473994  -0.05186998
C    2.23302913  -0.45787984  -0.00565000
C    2.20301914  -1.94567931   0.05754998
O    1.15562963  -2.58332920   0.05819998
C    3.37041879   0.25989991  -0.01971999
C    4.73425817  -0.21800992   0.00949000
C    5.78666782   0.60958976   0.01046000
H    0.95120960   1.28634953  -0.10565996
H    0.30364990  -0.05421998   0.84526968
H    0.32197988  -0.14190996  -0.93167961
H    3.17327881  -2.46043897   0.10666995
H    3.27281880   1.34606946  -0.06190998
H    4.93313837  -1.28521955   0.02703999
H    5.67957783   1.68989944  -0.00682000
H    6.79820728   0.21454993   0.02967999

