%chk=mol_3372.chk
# wB97XD/Def2SVP opt freq pop=full gfinput

C 6 H 8 O 1

1 2
C    1.06181967  -0.13507994  -0.21362992
O    2.48053908  -0.06234998  -0.19862993
C    3.06149888   1.16826952   0.00000000
C    2.41457915   2.32975912   0.18692993
C    4.46749830   1.16826952   0.00000000
C    5.65765810   1.16826952   0.00000000
C    7.10165739   1.16826952   0.00000000
H    0.77969968  -1.17866957  -0.38228983
H    0.64636976   0.46161982  -1.03249955
H    0.64220977   0.17471994   0.74933970
H    1.33586943   2.41118932   0.19986992
H    2.96607876   3.25396872   0.33587986
H    7.49565697   2.18913913  -0.01161000
H    7.49569702   0.64778972  -0.87828970
H    7.49569702   0.66789979   0.88989967

