%chk=mol_4777.chk
# wB97XD/Def2SVP opt freq pop=full gfinput

C 4 H 8 N 2 O 1

1 2
C    1.06960964  -0.22297992  -0.27006990
C    2.56046915  -0.42376986  -0.24500990
N    3.09097862  -1.57100940  -0.48287982
N    3.30836868   0.69158971   0.05415998
C    4.67051840   0.87562966   0.16621993
C    5.59485769  -0.28832987  -0.05549998
O    5.09631824   1.99874926   0.44383985
H    0.79666972   0.82543969  -0.12589996
H    0.61590976  -0.82123971   0.52535981
H    0.67617977  -0.56275976  -1.23259950
H    2.36840916  -2.27217913  -0.68045974
H    2.81501889   1.55606937   0.22889991
H    5.38270760  -1.08559966   0.66039973
H    6.62676764   0.03934998   0.10373995
H    5.50853777  -0.64910972  -1.08288956

