%chk=mol_4016.chk
# wB97XD/Def2SVP opt freq pop=full gfinput

C 4 H 6 N 2 O 1

1 2
C    0.96256965   0.02998999   0.01547999
C    2.43461919   0.05495998  -0.04237999
C    3.30886889   1.06218958  -0.15266994
N    4.62460804   0.65754980  -0.16634993
N    4.59832859  -0.71227974   0.11565995
C    3.28444862  -1.15589964   0.04437998
O    2.89143896  -2.30725908   0.03145999
H    0.54808980   1.04330957   0.01588999
H    0.62120980  -0.47236982   0.92596960
H    0.55266982  -0.50300980  -0.84763968
H    3.08517885   2.11937928  -0.20544992
H    5.21324825   1.20656943   0.46493980
H    5.35284805  -1.32029951  -0.17961992

