%chk=mol_5983.chk
# wB97XD/Def2SVP opt freq pop=full gfinput

C 4 H 4 N 2 O 1

1 2
O    1.00508964   0.00423000  -0.14297995
C    2.35532904   0.04528999   0.00648000
C    3.01745892   1.24987948   0.04331998
C    4.39519835   1.21328962   0.19824992
C    5.00464773  -0.02442999   0.30442989
N    4.31431866  -1.18560958   0.26309991
N    2.96429873  -1.14984953   0.11128996
H    0.84660965  -0.95692968  -0.13106994
H    2.47812915   2.18427896  -0.04567998
H    4.97926807   2.12522936   0.23538992
H    6.07717800  -0.12564996   0.42726985

