%chk=mol_3097.chk
# wB97XD/Def2SVP opt pop=full gfinput

C 5 H 10 O 2

1 2
C    1.345107   4.300620   0.529199
C    4.154865   4.537157   0.358727
C    5.699717   2.544705   0.125421
O    8.276018   2.488864  -0.044446
C    9.573674   4.866083  -0.047942
C   12.403916   4.322276  -0.149232
O   13.031854   3.037508  -2.432361
H    0.684837   5.033437   2.347040
H    0.711123   2.338933   0.353152
H    0.453799   5.401442  -0.978406
H    4.886435   6.450996   0.438964
H    4.994924   0.618167   0.051684
H    9.141852   5.924537   1.679778
H    9.008948   5.946061  -1.723978
H   12.979489   3.115667   1.428198
H   13.487675   6.080307  -0.080200
H   11.847733   1.628831  -2.560107

