%chk=mol_6473.chk
# wB97XD/Def2SVP opt freq pop=full gfinput

C 4 H 6 N 2 S 1

1 2
C    0.95685965   0.09501997   0.00256000
C    2.44228911   0.01621999  -0.00343000
N    3.24321866   1.06079960  -0.03366999
C    4.53979826   0.63409978  -0.04559999
N    5.50330782   1.55711949  -0.08527997
C    4.74178839  -0.72483969  -0.01123000
S    3.22197866  -1.51911950   0.02728999
H    0.62912977   1.13967967   0.00988000
H    0.54284978  -0.39372984   0.89038968
H    0.53923976  -0.38255987  -0.88965964
H    6.46767759   1.34730947   0.13943994
H    5.23438787   2.52448893   0.06124998
H    5.66980791  -1.27523959  -0.01330000

