%chk=mol_7125.chk
# wB97XD/Def2SVP opt freq pop=full gfinput

C 6 H 7 N 1

1 2
C    0.98225963   0.00138000  -0.00732000
C    2.51999903   0.00000000   0.00000000
C    3.01283884  -0.71382976   1.27044952
C    3.00333881  -0.75353974  -1.18563950
C    3.40280867  -1.35438943  -2.14562917
C    3.00201893   1.36116946   0.00000000
N    3.38622880   2.44615912   0.00000000
H    0.58566976   0.50234979  -0.89962965
H    0.57756978   0.52465981   0.86760968
H    0.58047980  -1.01923966  -0.00119000
H    2.66540885  -0.20434992   2.17748904
H    4.10916853  -0.74465972   1.31322956
H    2.65630913  -1.75027943   1.31184959
H    3.76314855  -1.88083923  -3.00069880

