%chk=mol_0040.chk
# wB97XD/Def2SVP opt freq pop=full gfinput

C 3 H 6 O 1

1 2
C    0.98468965  -0.03218999  -0.05382998
C    2.49392915   0.02412999   0.07417998
C    2.96972895   1.45160949   0.03739999
O    3.71670842   1.93558931   0.88244969
H    0.63692975  -1.06919956  -0.02550999
H    0.65225977   0.41547987  -0.99616963
H    0.50203985   0.51548982   0.76220971
H    2.96742892  -0.51325977  -0.75342971
H    2.81359911  -0.43538985   1.01477969
H    2.65361905   2.04253912  -0.83938968

