%chk=mol_0230.chk
# wB97XD/Def2SVP opt pop=full gfinput

C 5 H 7 N 1

1 2
C    0.663842   2.739555   0.665032
C   -1.441294   1.494225  -0.775770
C   -2.571313  -0.826037   0.181527
C   -0.872959  -2.686302   0.391400
C    1.655457  -1.711015  -0.440363
N    1.259843   0.931937  -1.335885
H    1.079336   4.698880   0.239447
H    1.028786   2.196788   2.605233
H   -2.437936   2.533650  -2.228989
H   -4.553370  -0.991086   0.648743
H   -1.232272  -4.580035   1.050688
H    3.034692  -1.780519   1.101351
H    2.367789  -2.852088  -2.012010

