%chk=mol_4415.chk
# wB97XD/Def2SVP opt freq pop=full gfinput

C 5 H 9 N 1 O 1

1 2
C    0.99999964   0.00000000   0.00000000
C    2.44399905   0.00000000   0.00000000
C    3.63415861   0.00000000   0.00000000
C    5.07815790   0.00000000   0.00000000
O    5.55829811  -0.64144981  -1.18370950
C    5.64931774   1.43580937   0.04648998
N    7.11663723   1.42942953  -0.10980996
H    0.60601974   1.02087963   0.01167000
H    0.60592973  -0.52051979   0.87824970
H    0.60595977  -0.50028980  -0.88994968
H    5.45971775  -0.57200980   0.85336971
H    6.44040775  -0.24373990  -1.32979953
H    5.37521791   1.93336928   0.98342961
H    5.23534775   2.02662921  -0.77957970
H    7.53949690   1.00555968   0.71747971
H    7.44568729   2.39596915  -0.12154996

