%chk=mol_1284.chk
# wB97XD/Def2SVP opt pop=full gfinput

C 6 H 13 N 1

1 2
C    5.713133  -1.529015   2.261794
C    4.885320   0.021675  -0.025530
C    5.813062   2.804127  -0.070279
C    4.828534   4.081166  -2.492360
N    4.747786   4.203866   2.070668
C    8.677868   2.915073  -0.103878
C   10.202688   4.160950   1.493621
H    4.999138  -3.463679   2.088752
H    4.968317  -0.749938   4.025532
H    7.772727  -1.635917   2.406604
H    2.812083  -0.021505  -0.117276
H    5.549899  -0.953499  -1.733257
H    5.533194   3.122224  -4.189787
H    5.426235   6.063111  -2.607539
H    2.757715   4.045998  -2.581082
H    5.325248   3.384745   3.711725
H    2.829846   4.056165   2.047499
H    9.577057   1.857657  -1.625713
H    9.467358   5.292820   3.037319
H   12.239284   4.099950   1.260844

