%chk=mol_6433.chk
# wB97XD/Def2SVP opt freq pop=full gfinput

C 6 H 9 N 1

1 2
C    0.99885958  -0.08990996  -0.12865995
C    2.44999909   0.14864995   0.07701997
C    3.11965895   1.28560948  -0.15962994
C    4.56989813   1.07075965   0.16268994
N    4.69997787  -0.31845987   0.68691975
C    4.48179817  -1.36343956  -0.31214988
C    3.33983874  -0.90935969   0.55281985
H    0.83021969  -1.06465960  -0.59682977
H    0.55535978   0.67186975  -0.77996969
H    0.47046983  -0.07245997   0.83004969
H    2.70588899   2.21005917  -0.52426982
H    5.20022774   1.22130954  -0.72003973
H    4.88584852   1.77399933   0.93996966
H    4.93067789  -2.32393909  -0.09135997
H    4.50635815  -1.08696961  -1.35943949
H    3.01766896  -1.52062941   1.38774955

