%chk=mol_1939.chk
# wB97XD/Def2SVP opt freq pop=full gfinput

C 5 H 12 N 2

1 2
N    0.98628962  -0.01006000   0.12310995
C    2.45052910  -0.00272000   0.01573999
C    2.93516898  -1.35430944  -0.52009982
C    2.60791898  -1.51624942  -2.00492930
C    3.12173891  -0.32988989  -2.82130909
N    2.62406898   0.94914967  -2.31778908
C    2.96436906   1.13657963  -0.90358967
H    0.64847976   0.92318964   0.34561986
H    0.69397974  -0.63150978   0.87255967
H    2.85904884   0.15451993   1.02124953
H    2.49965906  -2.18205905   0.05198998
H    4.02275848  -1.42194951  -0.38586986
H    3.05944896  -2.44212914  -2.37971926
H    1.52390945  -1.61624932  -2.14027929
H    4.21888828  -0.32630986  -2.82397890
H    2.80239916  -0.44811982  -3.86275864
H    3.01526880   1.71033943  -2.86830902
H    4.05462837   1.21902943  -0.80063969
H    2.54876900   2.09390926  -0.56632978

