%chk=mol_5414.chk
# wB97XD/Def2SVP opt pop=full gfinput

C 4 H 6 N 2 O 1

1 2
C    1.944528  -0.345952  -0.784369
O    4.324355   0.139537   0.400641
C    5.495664   2.357414  -0.101308
N    4.624160   4.612576  -0.503064
N    2.102585   5.009947  -0.269777
C    8.208951   2.240195  -0.096603
C   10.477945   2.134484  -0.088931
H    1.800455  -2.386327  -1.084986
H    1.795750   0.573891  -2.630858
H    0.406537   0.224594   0.471279
H    1.717648   6.872669  -0.616089
H    1.526937   4.689771   1.548801
H   12.488312   2.049673  -0.083072

