%chk=mol_6185.chk
# wB97XD/Def2SVP opt freq pop=full gfinput

C 5 H 11 N 1 O 1

1 2
O    3.99919844   1.50652945   2.39520907
C    3.37472868   2.65034914   1.83113933
C    3.08174896   2.41356921   0.35553986
C    4.32042837   2.09883928  -0.48827982
C    5.33773756   3.19969869  -0.47804981
C    5.96416759   3.66595864  -1.76925933
N    5.00468826   4.50154829  -1.05240965
H    4.09194851   1.67581940   3.34862852
H    4.02698851   3.51625848   1.97713923
H    2.43839908   2.83246899   2.36836910
H    2.56565905   3.29120898  -0.05205998
H    2.39421916   1.56325936   0.26476991
H    3.99150872   1.89373934  -1.51432943
H    4.79468822   1.17692947  -0.13069995
H    5.94880772   3.20114875   0.41787985
H    5.61482763   3.24865866  -2.70530915
H    6.99632740   3.99094844  -1.75875938
H    5.48349810   5.25301790  -0.55212981

