%chk=mol_5754.chk
# wB97XD/Def2SVP opt pop=full gfinput

C 4 H 4 N 2 O 1

1 2
N    1.923760  -0.533980  -0.048434
C    4.475495  -0.035224  -0.060320
C    5.770317   2.150489   0.000000
C    4.420069   4.597193   0.018047
O    5.485913   6.638967   0.253204
C    8.427272   2.150489   0.000000
N   10.602365   2.150489   0.000000
H    1.458491  -2.315859   0.526440
H    0.770158   0.796576   0.722348
H    5.544419  -1.800871  -0.154693
H    2.351707   4.502650  -0.191543

