%chk=mol_2401.chk
# wB97XD/Def2SVP opt pop=full gfinput

C 6 H 8 O 1

1 2
C    1.654247  -0.054046  -0.461225
C    4.136705   0.000567   0.029877
C    5.561691   2.392620   0.644888
C    8.232780   2.247489  -0.441478
O    9.592194   0.057958   0.412981
C    8.191887  -2.125564   0.295629
C    5.675887  -2.260528   0.049549
H    0.528708   1.662165  -0.443670
H    0.669624  -1.804481  -0.882899
H    4.590919   4.064121  -0.099230
H    5.667383   2.579571   2.707808
H    9.315008   3.910297   0.145962
H    8.201166   2.236018  -2.514923
H    9.399479  -3.768889   0.459052
H    4.759559  -4.092542  -0.078669

