%chk=mol_3674.chk
# wB97XD/Def2SVP opt freq pop=full gfinput

C 5 H 6 O 2

1 2
O    1.08443964   0.36761987  -0.87153971
C    2.03986931   0.27878991  -0.10204996
C    3.19822884   1.26718950  -0.02653999
O    3.66067863   1.34171951   1.33591950
C    3.52591848   2.69853902   1.79929924
C    2.98875880   3.46428871   0.65251976
C    2.80177879   2.65223908  -0.38469985
H    2.15256906  -0.61281979   0.53846979
H    4.01831865   0.89439964  -0.64696980
H    4.50937796   3.06339884   2.10887933
H    2.84436893   2.71267891   2.65412903
H    2.77418900   4.52237844   0.67028975
H    2.40556908   2.93758893  -1.34895957

