%chk=mol_5248.chk
# wB97XD/Def2SVP opt pop=full gfinput

C 6 H 11 N 1

1 2
C    1.546986   0.099135  -0.053725
C    4.327681  -0.151443   0.275144
C    5.949217  -1.887345  -1.294595
C    5.138222  -2.954908  -3.782325
C    5.612468  -0.797956  -5.612638
C    5.383433   1.588825  -4.012682
N    6.209414   0.907522  -1.445055
H    0.936888   1.999122   0.496299
H    0.579390  -1.251282   1.181306
H    0.884562  -0.251976  -1.978505
H    4.820748   0.021789   2.260434
H    7.517444  -2.869152  -0.423922
H    6.242125  -4.625936  -4.297880
H    3.143919  -3.500170  -3.753431
H    7.540612  -0.943484  -6.364088
H    4.303379  -0.818081  -7.213009
H    6.619994   3.064947  -4.770463
H    3.462507   2.354334  -4.053916

