%chk=mol_4032.chk
# wB97XD/Def2SVP opt freq pop=full gfinput

C 4 H 5 N 1 O 2

1 2
C    1.00259960  -0.00882000  -0.08289997
C    2.51128912   0.01767999   0.03522998
C    3.11958885  -1.16488957  -0.61020976
N    3.91699839  -0.88928968  -1.58160949
O    3.94747853   0.53328985  -1.71966934
C    3.12203884   1.10775959  -0.78014970
O    2.92397881   2.30549932  -0.64932978
H    0.56298977   0.89051968   0.36061984
H    0.58555979  -0.88311970   0.42772985
H    0.68022978  -0.05173998  -1.12970948
H    2.85030890   0.07447997   1.07264960
H    2.90413904  -2.18417907  -0.26071990

