%chk=mol_4885.chk
# wB97XD/Def2SVP opt pop=full gfinput

C 5 H 9 N 1 O 1

1 2
C    6.057291  -3.447900   1.346959
C    5.426386  -1.043941  -0.054065
O    4.160459  -1.089559  -2.010215
C    6.318356   1.431789   1.104224
N    9.085803   1.400249   1.307558
C   10.358590   2.883269  -0.641997
C   10.138891   3.844667   2.028734
H    8.093205  -3.780473   1.305480
H    5.105227  -5.041676   0.443859
H    5.394053  -3.304186   3.296760
H    5.462688   1.590771   2.982914
H    5.582440   2.993118  -0.048037
H    9.241233   3.780964  -2.103379
H   12.177433   2.175264  -1.260296
H   11.808294   3.779018   3.212138
H    8.857619   5.392806   2.412481

