%chk=mol_4523.chk
# wB97XD/Def2SVP opt freq pop=full gfinput

C 4 H 10 N 2 O 1

1 2
C    1.00937963  -0.31152987   0.03737999
C    2.51140904  -0.07254997   0.04734998
C    2.83800888   1.41713941  -0.06200998
N    4.29013872   1.61322951  -0.01342000
N    4.61623859   2.96625900  -0.16383994
C    4.98968840   3.72380853   0.91782969
O    5.29360819   4.90786839   0.83788967
H    0.79585969  -1.38208950   0.11034995
H    0.55878979   0.06339998  -0.88668966
H    0.52798980   0.18940993   0.88291961
H    2.96648884  -0.61962974  -0.78745967
H    2.93291903  -0.48366982   0.97284961
H    2.36415911   1.95762932   0.76683968
H    2.43268919   1.81531930  -1.00059962
H    4.73709822   1.07563961  -0.76094973
H    4.61090803   3.42525864  -1.07147968
H    4.98404789   3.16769886   1.86993933

