%chk=mol_3846.chk
# wB97XD/Def2SVP opt freq pop=full gfinput

C 4 H 7 N 1 O 2

1 2
C    1.63989937  -0.17562994  -0.14673994
C    0.76896971  -1.11710966   0.67086971
O   -0.46219984  -1.42959940   0.00471000
C   -1.41820943  -0.48175985  -0.15724994
N   -1.36608958   0.80027968   0.00892000
O   -0.12871996   1.31922948   0.43003985
C    0.88725966   1.08164966  -0.54351979
H    2.01094913  -0.67042977  -1.05143952
H    2.51821899   0.09187996   0.45279983
H    1.30097950  -2.06247926   0.82229972
H    0.55085975  -0.72005975   1.66950941
H   -2.34309912  -0.95810962  -0.51830977
H    1.56345940   1.94217920  -0.55671978
H    0.45754981   0.99463964  -1.54898942

