%chk=mol_0749.chk
# wB97XD/Def2SVP opt pop=full gfinput

C 5 H 10 O 1

1 2
C    2.045496  -0.411129  -0.616863
C    4.828496  -0.384049   0.124949
C    5.954792   2.287324   0.056106
O    4.640487   3.856591   1.806030
C    8.717099   2.510312   0.688956
C   10.318906   0.662462   1.347658
H    1.323224  -2.349175  -0.595831
H    1.780500   0.351413  -2.520951
H    0.904442   0.704981   0.697781
H    5.869924  -1.629908  -1.162408
H    4.984039  -1.176411   2.034838
H    5.663981   3.094256  -1.829255
H    5.042980   3.230033   3.486337
H    9.460026   4.427949   0.575818
H    9.745129  -1.299508   1.500197
H   12.285677   1.091109   1.753175

