%chk=mol_3509.chk
# wB97XD/Def2SVP opt pop=full gfinput

C 5 H 8 O 2

1 2
O    1.409528   0.055974  -0.037284
C    4.085021   0.076364   0.362525
C    5.637299  -1.579206  -1.340798
C    4.671875  -2.656331  -3.756946
O    4.924248  -0.683079  -5.609501
C    4.767156   1.692212  -4.302415
C    5.690891   1.210502  -1.686033
H    0.611289   1.536461   0.705850
H    4.744308   0.276354   2.296622
H    7.302015  -2.512788  -0.618961
H    5.785718  -4.280721  -4.380385
H    2.685036  -3.217523  -3.635531
H    5.948121   3.064626  -5.299284
H    2.806961   2.352974  -4.335958
H    7.400149   2.217575  -1.207743

