%chk=mol_3484.chk
# wB97XD/Def2SVP opt pop=full gfinput

C 5 H 8 O 2

1 2
C    5.071080  -1.450251   2.360740
O    4.481485  -0.164916   0.076194
C    5.369203   2.372664   0.104313
O    8.046983   2.544554   0.034639
C    9.032154   1.621196  -2.293882
C   11.760257   2.118610  -2.383682
C   13.992307   2.522199  -2.472310
H    4.275373  -3.354207   2.253536
H    4.231740  -0.480255   3.982749
H    7.117748  -1.611237   2.604628
H    4.690376   3.339241   1.805388
H    4.557037   3.368040  -1.520020
H    8.104809   2.570557  -3.883614
H    8.688091  -0.414511  -2.440014
H   15.971833   2.881757  -2.546576

