%chk=mol_1052.chk
# wB97XD/Def2SVP opt freq pop=full gfinput

C 4 H 7 N 1 O 1

1 2
C    1.15925956  -0.29928988  -0.19707993
N    2.59065914  -0.13918994  -0.19297992
C    3.16313887   1.03020966   0.24216992
O    2.53450894   1.98695934   0.67435980
C    4.64442825   1.02334964   0.12918995
C    5.35725832   2.09663916   0.49206981
H    0.92246968  -1.33525944  -0.45002985
H    0.72788972   0.37484986  -0.94209963
H    0.75774968  -0.05393998   0.79007971
H    3.16118884  -0.87023968  -0.59286976
H    5.13492823   0.13614996  -0.24737991
H    4.87637854   2.99440885   0.87386966
H    6.43922710   2.10096931   0.41552985

