%chk=mol_4237.chk
# wB97XD/Def2SVP opt pop=full gfinput

C 5 H 7 N 1 O 1

1 2
C    3.854134  -1.621461  -1.458925
C    3.713274   0.905878  -1.500008
C    5.149655   2.625774   0.117484
C    7.788468   3.301616  -0.567787
N    5.756730   5.062671  -0.908335
C    5.593004   7.193431   0.606602
O    6.139985   7.358083   2.847288
H    2.707656  -2.759491  -2.722869
H    5.108346  -2.601661  -0.165200
H    2.406585   1.772695  -2.832813
H    4.629187   2.623356   2.102774
H    8.593662   2.643840  -2.326272
H    9.111201   3.752108   0.926476
H    4.878876   8.811264  -0.493313

