%chk=mol_2206.chk
# wB97XD/Def2SVP opt freq pop=full gfinput

C 5 H 8 O 2

1 2
C   -1.38530946   0.78261971   0.59336978
C   -1.19424951  -0.29975989  -0.43461984
O   -0.35444987  -1.40078950  -0.02756999
C    0.98295963  -1.25557959  -0.50892985
C    1.56792939   0.02933999   0.05502998
O    0.88207966   1.18919957  -0.43103984
C   -0.54761976   1.05114961  -0.62393975
H   -2.35857916   1.25610960   0.64959979
H   -0.89345962   0.67595977   1.55089951
H   -2.03974938  -0.53736985  -1.07163966
H    1.55923939  -2.12136912  -0.17039993
H    0.96799964  -1.24865949  -1.60424936
H    1.51193941   0.03981999   1.14944947
H    2.61883903   0.12462995  -0.23485991
H   -0.98398960   1.69737935  -1.37992954

