%chk=mol_4627.chk
# wB97XD/Def2SVP opt freq pop=full gfinput

C 5 H 11 N 1 O 1

1 2
C    0.90445966  -0.03950999   0.65321976
C    2.36773896  -0.07213997   0.25095990
C    2.98303890   1.32089949   0.23856990
O    4.35303831   1.20500958  -0.14838995
N    4.90987825   2.49173927  -0.19667993
C    6.15391779   2.39054894  -0.52964979
C    7.01341724   3.60720873  -0.66234976
H    0.49279979  -1.05333960   0.66970974
H    0.31697989   0.55418980  -0.05423998
H    0.78129971   0.39358985   1.65085936
H    2.47134900  -0.52887982  -0.74074972
H    2.92921901  -0.71560973   0.93888968
H    2.92749882   1.77233934   1.23606956
H    2.45652914   1.96464932  -0.47570983
H    6.63221741   1.41431952  -0.72319973
H    6.43721771   4.51642847  -0.47594982
H    7.43088722   3.63652873  -1.67185938
H    7.83540678   3.53890848   0.05465998

