%chk=mol_1916.chk
# wB97XD/Def2SVP opt freq pop=full gfinput

C 5 H 6 N 2

1 2
N    1.16838956  -0.09231997  -0.12333995
C    2.44028902   0.12681995  -0.12791994
C    2.98629880   1.43558955   0.30292991
C    4.29944801   1.28551948   0.08529997
C    4.67918825  -0.03252999  -0.43093985
C    4.40698814  -1.25277960   0.38594985
N    3.39583874  -0.78884971  -0.56570977
H    1.03422964  -1.04400957  -0.48401982
H    2.41542912   2.26913905   0.66408974
H    5.03028822   2.06097913   0.27380988
H    5.27990818  -0.08684997  -1.32869947
H    4.86722851  -2.18517923   0.08873997
H    4.11818838  -1.17216957   1.42570949

