%chk=mol_4145.chk
# wB97XD/Def2SVP opt freq pop=full gfinput

C 4 H 8 N 2 O 1

1 2
C    0.97172964   0.00329000   0.00282000
C    2.49417901  -0.03317999  -0.05909998
N    2.96525908   0.17651993  -1.43364942
C    3.09095883  -1.25878954   0.62022972
O    3.34672880  -0.85744971   1.97511923
N    3.53151846   0.54758984   1.98458934
C    3.06006885   0.99103963   0.86896968
H    0.60862976  -0.10881996   1.03147960
H    0.53159982  -0.80156970  -0.59652978
H    0.58061981   0.95752966  -0.37015986
H    3.98543859   0.20866993  -1.45538938
H    2.63387918   1.07085955  -1.79326928
H    4.05034828  -1.55879951   0.18238993
H    2.42298889  -2.12566900   0.61282974
H    3.03299880   2.06083918   0.61658978

