%chk=mol_2775.chk
# wB97XD/Def2SVP opt pop=full gfinput

C 6 H 8 O 1

1 2
C    2.048898   0.003364  -0.224726
C    4.870543  -0.176349   0.078102
C    6.038034  -2.406717   0.413302
C    6.277424   2.185374  -0.047168
C    8.096230   2.602984  -1.765741
C    5.704157   4.254341   1.794635
O    6.674211   6.357303   1.730630
H    1.197501   1.057491   1.339457
H    1.160254  -1.865481  -0.266735
H    1.568359   0.956655  -1.998688
H    4.987819  -4.167545   0.487814
H    8.076632  -2.540642   0.626104
H    8.600182   1.192115  -3.166841
H    9.125978   4.379970  -1.829954
H    4.318837   3.756190   3.269982

