%chk=mol_4772.chk
# wB97XD/Def2SVP opt pop=full gfinput

C 5 H 6 N 2

1 2
C    4.013476   0.463909   1.631230
C    4.703415   0.092767  -1.196688
C    5.092151   2.813670  -1.097988
C    4.995510   5.151280  -2.088034
C    4.762960   6.605991   0.180431
N    4.627070   5.180325   2.297113
N    5.218271   2.883401   1.432507
H    4.957451  -0.796538   2.972653
H    2.012294   0.595925   2.151586
H    3.289805  -0.567693  -2.546274
H    6.439374  -1.000705  -1.486553
H    4.820484   5.774776  -4.017822
H    4.504843   8.630190   0.348277

