%chk=mol_2250.chk
# wB97XD/Def2SVP opt pop=full gfinput

C 6 H 10 O 1

1 2
C    2.590248  -0.477912  -0.618526
C    5.256878   0.106373   0.099967
C    6.942608  -1.992414   1.065031
C    7.417723  -0.844859  -1.475668
O    9.284432   1.150163  -1.639980
C    8.069433   3.477965  -0.940082
C    5.894849   2.772209   0.830610
H    1.785640   1.039501  -1.769124
H    1.429408  -0.689448   1.077352
H    2.455510  -2.229348  -1.707783
H    6.198547  -3.900262   1.122176
H    8.278021  -1.587880   2.565133
H    7.039211  -1.967999  -3.144731
H    9.434760   4.742986  -0.040478
H    7.360748   4.366325  -2.671260
H    6.523429   2.835893   2.804694
H    4.318818   4.097569   0.630677

