%chk=mol_6217.chk
# wB97XD/Def2SVP opt pop=full gfinput

C 4 H 7 N 1 O 2

1 2
O    2.305164  -0.479159   0.115179
C    4.923190   0.128634  -0.062002
C    5.336511   2.928055   0.061548
C    3.545807   4.709046   0.309424
C    7.997302   3.805606  -0.107941
N    9.892603   2.274947  -0.336504
O   12.127298   3.687007  -0.443065
H    2.193178  -2.309491   0.014494
H    5.628870  -0.623799  -1.855843
H    5.900198  -0.812601   1.500480
H    1.565392   4.182417   0.443764
H    3.973660   6.712118   0.387545
H    8.294272   5.872040  -0.027571
H   13.417188   2.379940  -0.603352

