%chk=mol_6501.chk
# wB97XD/Def2SVP opt pop=full gfinput

C 5 H 7 N 1 S 1

1 2
C    1.661542  -0.358141   0.046714
C    4.516805  -0.034733  -0.024188
C    5.260223   2.685622  -0.036377
C    5.690646   4.316399   1.955867
C    6.366808   6.753295   1.037460
N    6.470290   7.041687  -1.456752
S    5.735886   4.306270  -2.800820
H    1.169816  -2.366995   0.083205
H    0.766322   0.490289  -1.615772
H    0.847032   0.531882   1.729081
H    5.281973  -1.008320  -1.685201
H    5.346168  -0.961360   1.633498
H    5.531947   3.806683   3.928703
H    6.803676   8.388248   2.185903

