%chk=mol_3175.chk
# wB97XD/Def2SVP opt freq pop=full gfinput

C 6 H 6 O 1

1 2
C    3.04100871  -1.35924947   0.07561997
C    2.36349916  -0.01517999   0.03906999
O    1.13722956   0.08688997   0.02384999
C    3.17979884   1.22711957   0.02330999
C    4.51803827   1.25053942   0.00000000
C    5.22103834   2.46816921   0.00000000
C    5.81611776   3.49887872   0.00000000
H    3.67130852  -1.44041955   0.96491969
H    3.63046885  -1.50846946  -0.83280969
H    2.28088903  -2.14518929   0.12515996
H    2.59617901   2.14336920   0.03418999
H    5.10897827   0.34101987  -0.01336999
H    6.34695768   4.42270851  -0.00010000

