%chk=mol_4157.chk
# wB97XD/Def2SVP opt freq pop=full gfinput

C 4 H 6 N 2 O 1

1 2
C    0.99596965   0.05947998   0.00669000
C    2.49878907   0.05580998  -0.00174000
N    3.12596869   1.18668962   0.02367999
N    4.52050829   1.15567958   0.01358000
C    5.15284824   0.03228999  -0.00980000
O    4.62367821  -1.20733964  -0.03280999
C    3.21151876  -1.26769948  -0.04688998
H    0.60766977  -0.96238965   0.00810000
H    0.62956977   0.57986981  -0.88266963
H    0.63863975   0.57855976   0.90051967
H    6.25141764  -0.01551999  -0.01292000
H    2.88786888  -1.86329937   0.81306970
H    2.90168881  -1.79564929  -0.95480961

