%chk=mol_3778.chk
# wB97XD/Def2SVP opt freq pop=full gfinput

C 5 H 8 O 2

1 2
O    2.34296918  -0.38737985  -0.15009995
C    2.21325898   0.85674965  -0.82622969
C    0.75587976   1.14314961  -1.16388953
O   -0.13378994   0.29991990  -1.05117965
C    2.79965901   1.92426920   0.04754998
C    4.26004887   2.28600931  -0.06899998
C    3.20897889   3.26159883  -0.52040976
H    1.53017938  -0.89342970  -0.35207987
H    2.75284910   0.78059971  -1.77640927
H    0.54909980   2.13828921  -1.59120941
H    2.37151933   1.90852928   1.04532957
H    4.85943842   1.79182923  -0.82579964
H    4.80093813   2.50252914   0.84574968
H    3.04407883   4.14293861   0.09050997
H    3.11165881   3.43808866  -1.58549941

