%chk=mol_3649.chk
# wB97XD/Def2SVP opt freq pop=full gfinput

C 5 H 10 O 2

1 2
O    1.92131925  -0.21951991  -1.33649957
C    2.37045908   0.12871996  -0.03173999
C    3.10805869   1.46411943  -0.05098998
C    2.25546908   2.62921906  -0.52728981
C    2.95598888   3.79647851   0.12255995
C    3.35405874   3.21741891   1.46401942
O    3.55772877   1.80913937   1.27162957
H    1.49017954  -1.08845949  -1.26094949
H    3.03316879  -0.66128975   0.33766988
H    1.50760937   0.17081994   0.64210975
H    3.99527836   1.38198948  -0.69080973
H    1.23208952   2.55227900  -0.13957995
H    2.20592904   2.70638895  -1.61691940
H    3.85210848   4.05879879  -0.45242983
H    2.33322930   4.69046831   0.21135992
H    4.26592827   3.67095852   1.86217940
H    2.55304909   3.33942866   2.20051908

