%chk=mol_6549.chk
# wB97XD/Def2SVP opt freq pop=full gfinput

C 4 H 6 O 2 S 1

1 2
C    0.99999964   0.00000000   0.00000000
C    2.44399905   0.00000000   0.00000000
C    3.63415861   0.00000000   0.00000000
S    5.42030811   0.00555000  -0.01224000
C    5.90700769  -0.83446968   1.46808934
O    5.63591766  -0.79817969  -1.19082952
O    5.63704824   1.43073940   0.07429998
H    0.60597974   1.02085960   0.01169000
H    0.60599977  -0.52054983   0.87825966
H    0.60597974  -0.50031978  -0.88992965
H    5.51972818  -0.28789991   2.32915902
H    6.99786758  -0.85505968   1.49905944
H    5.51539803  -1.85238934   1.44221950

