%chk=mol_2743.chk
# wB97XD/Def2SVP opt freq pop=full gfinput

C 7 H 12

1 2
C    4.55748796  -2.76655889  -0.44290984
C    3.72722864  -1.74234939   0.28124991
C    2.67586899  -2.09938908   1.03677964
C    4.11400843  -0.29148990   0.08770997
C    5.48104763   0.04286999   0.64422977
C    5.65376806  -0.07757998   2.13341928
C    6.48527765   0.45816982  -0.14611994
H    4.56710863  -2.55849886  -1.51743948
H    4.16713858  -3.78053856  -0.30533987
H    5.58909798  -2.75948882  -0.07610997
H    2.39389896  -3.14052868   1.16427958
H    2.06745934  -1.36061954   1.55076945
H    3.37882853   0.37209985   0.56090981
H    4.06563854  -0.06367998  -0.98562962
H    4.91113806   0.53614980   2.65359902
H    6.64514732   0.25604990   2.45881891
H    5.53529787  -1.11725962   2.45481896
H    6.35911751   0.55774981  -1.22030962
H    7.46129704   0.70882976   0.25815991

