%chk=mol_1271.chk
# wB97XD/Def2SVP opt freq pop=full gfinput

C 6 H 11 N 1

1 2
C    0.95162964  -0.09800997   0.04830998
C    2.48339915  -0.03733999  -0.02833999
C    2.93805885  -0.81678969  -1.27227962
C    3.01875901   1.42067945  -0.04882998
N    2.55167890   2.20413899   1.09378958
C    4.49354839   1.45102942  -0.02383999
C    5.69455814   1.48359942  -0.00086000
H    0.58145982   0.29952988   0.99831963
H    0.59874976  -1.13285959  -0.02212999
H    0.49160981   0.47153983  -0.76630974
H    2.88322878  -0.55860978   0.85261971
H    2.59232903  -0.33097988  -2.19119930
H    2.53810906  -1.83666933  -1.25907946
H    4.02820826  -0.89985967  -1.31980944
H    2.67161894   1.91881931  -0.96232963
H    2.81308889   1.72506940   1.95359921
H    1.53707945   2.25953913   1.08667958
H    6.75875759   1.52142942   0.02308999

