%chk=mol_4583.chk
# wB97XD/Def2SVP opt pop=full gfinput

C 5 H 10 N 2

1 2
C    3.254902  -0.267094  -0.084924
C    1.638336  -2.398006   1.003426
C   -0.778265  -2.836158  -0.474227
C   -2.813745  -0.862906  -0.139386
N   -2.621768   1.523157   0.419651
N   -0.319779   2.544497   0.866572
C    1.759203   2.065697  -0.883901
H    4.310030  -0.967275  -1.726737
H    4.669211   0.263806   1.336188
H    2.766276  -4.135741   1.018638
H    1.183044  -1.981699   2.983065
H   -1.614639  -4.625388   0.155298
H   -0.405630  -3.040683  -2.500504
H   -4.749071  -1.530867  -0.548228
H   -0.530446   4.453612   1.085799
H    3.041080   3.693734  -0.892744
H    1.054826   1.875289  -2.823515

