%chk=mol_4918.chk
# wB97XD/Def2SVP opt freq pop=full gfinput

C 4 H 9 N 1 O 2

1 2
C    3.57609868  -1.96513927  -1.12906957
C    4.05489874  -1.06834960  -0.00372000
O    4.08736849   0.27391991  -0.48153985
C    4.47368860   1.18988955   0.54465979
O    5.82589769   0.98636967   0.96081966
N    6.10843754   1.84316933   2.03853917
C    7.33283710   1.65411937   2.39869905
H    3.55196881  -3.01009893  -0.81003970
H    4.23301840  -1.87505937  -1.99946928
H    2.57321906  -1.67130947  -1.45389938
H    5.05781794  -1.37801945   0.31115991
H    3.37045884  -1.14584959   0.84892964
H    3.79076862   1.09918952   1.39819944
H    4.38314867   2.19927907   0.13043995
H    7.75525713   2.23428917   3.23312879
H    7.99837732   0.92486966   1.90680933

