%chk=mol_0618.chk
# wB97XD/Def2SVP opt pop=full gfinput

C 5 H 10 O 1

1 2
C    1.877934  -0.144734   0.380270
C    4.691982   0.120980  -0.139292
C    5.315138   0.157622  -2.949182
C    6.052547   2.143592   1.454220
C    7.695456  -0.042708   2.363991
O    6.092421  -1.879144   1.119814
H    1.492978  -0.292227   2.409004
H    1.111253  -1.838836  -0.527101
H    0.838264   1.494055  -0.342551
H    7.358915   0.236783  -3.271626
H    4.467029   1.804953  -3.868477
H    4.599329  -1.541147  -3.888225
H    4.914441   3.020123   2.941737
H    7.054971   3.610397   0.401000
H    9.616646  -0.088288   1.596138
H    7.745099  -0.325071   4.407975

