%chk=mol_6594.chk
# wB97XD/Def2SVP opt freq pop=full gfinput

C 4 H 6 N 2 S 1

1 2
C    0.96955967  -0.12729995   0.02194999
N    2.42411923  -0.08298997   0.02567999
C    3.00011873   1.06287956  -0.01815999
S    2.26543903   2.66996908  -0.06100998
N    3.73763871   3.45624876  -0.21687992
C    4.75198793   2.53912902  -0.09009996
C    4.46297836   1.23725951  -0.01594999
H    0.64831978  -1.17400956   0.02234999
H    0.54956979   0.33706987  -0.87658966
H    0.54938984   0.34045988   0.91851968
H    3.89096856   4.34735823   0.25343990
H    5.76053810   2.93790889  -0.06152998
H    5.14719772   0.41144985   0.07099998

