%chk=mol_4902.chk
# wB97XD/Def2SVP opt freq pop=full gfinput

C 4 H 6 N 2 O 1

1 2
C    2.20123935  -0.70820975   1.65404928
C    2.03753924  -0.36444986   0.20400992
O    1.40246952  -1.03820956  -0.59697980
C    2.70160890   0.88815969  -0.29204991
N    3.35840869   1.64873946   0.52093983
N    3.88515854   2.74441886  -0.15464993
C    4.52972841   3.51655865   0.65414977
H    1.77721930   0.08404997   2.27603912
H    3.25943875  -0.85276973   1.88581932
H    1.66847944  -1.63971949   1.86723936
H    2.57951927   1.08806956  -1.36998940
H    5.00899792   4.43128824   0.27306989
H    4.63155842   3.30932879   1.73309934

