%chk=mol_3083.chk
# wB97XD/Def2SVP opt freq pop=full gfinput

C 6 H 12 O 1

1 2
C    3.31271887  -1.20161951  -0.78225970
C    2.61476898  -0.19641992   0.11907995
C    3.09277892   1.24598956  -0.08479997
O    2.30257893   2.10601926   0.74212968
C    4.58964825   1.50376940   0.17684993
C    5.06434774   1.10369956   1.55126941
C    5.53592777   1.96721935   2.46141911
H    2.86931872  -2.19397926  -0.65258980
H    4.37773848  -1.28124952  -0.54677975
H    3.21046877  -0.92093962  -1.83515930
H    2.72630906  -0.49511984   1.16832960
H    1.53476942  -0.23638992  -0.07448997
H    2.87721872   1.53961933  -1.11901963
H    2.57475901   1.95030928   1.66409945
H    4.78578854   2.57308888   0.02377999
H    5.19354820   0.96664965  -0.56362981
H    5.04077816   0.04451998   1.79824936
H    5.59734774   3.03183889   2.26072907
H    5.87970781   1.62074947   3.43146873

