%chk=mol_5280.chk
# wB97XD/Def2SVP opt freq pop=full gfinput

C 5 H 7 N 1 O 1

1 2
C    3.03417897  -1.14526951   0.51070982
O    2.31330919   0.06045998   0.29704988
C    3.09425879   1.15664959   0.18229994
C    2.54116917   2.39709902  -0.02683999
N    3.56307864   3.30637884  -0.10134996
C    4.76149797   2.65859890   0.05805998
C    4.49981833   1.31625950   0.23688991
H    2.30887914  -1.96096933   0.58812982
H    3.59771872  -1.10834956   1.44927955
H    3.69637871  -1.36531949  -0.33363986
H    1.51051939   2.70687914  -0.12832995
H    3.44994879   4.30076838  -0.25076991
H    5.69389772   3.20576882   0.03072999
H    5.24975777   0.55222982   0.38827986

