%chk=mol_6167.chk
# wB97XD/Def2SVP opt pop=full gfinput

C 4 H 8 N 2 O 1

1 2
O    3.067574  -0.506106   1.784695
C    4.715037  -0.078745  -0.294419
C    5.757051   2.595123  -0.225218
N    7.510074   3.358497  -1.793312
C    7.895503   6.064887  -1.095947
C    5.659352   6.800160   0.594470
N    4.833541   4.346937   1.455845
H    4.100290  -0.264618   3.290032
H    3.653880  -0.340113  -2.048577
H    6.269601  -1.440349  -0.234250
H    9.691064   6.242143  -0.079520
H    7.976175   7.246722  -2.791503
H    4.166790   7.710952  -0.513363
H    6.218409   8.039291   2.150017
H    2.985994   4.129052   1.932453

