%chk=mol_4874.chk
# wB97XD/Def2SVP opt freq pop=full gfinput

C 4 H 7 N 1 O 2

1 2
C    1.52328944  -0.34237987  -1.05027962
C    1.83189940   0.48138982   0.16429994
O    1.24652958   0.37379986   1.23372960
C    2.93167901   1.51253939   0.02089999
C    2.71543884   2.83005881   0.71297973
N    3.98742843   1.18280959  -0.66429979
O    4.91939831   2.22691917  -0.68614978
H    1.30948949   0.31401989  -1.89759934
H    0.63921976  -0.95625967  -0.85640967
H    2.36443901  -1.00106966  -1.28009963
H    1.68223941   2.92931890   1.05433965
H    2.92514896   3.65221882   0.02362999
H    3.38388872   2.89879894   1.57528949
H    5.66512823   1.83872938  -1.18237948

