%chk=mol_3033.chk
# wB97XD/Def2SVP opt pop=full gfinput

C 6 H 12 O 1

1 2
C    5.637620  -1.614884  -2.319299
C    4.736580  -0.133660  -0.029158
C    5.834624   2.539603   0.103160
O    4.662559   3.839527   2.153664
C    8.642342   2.556195   0.533885
C   10.436107   3.184793  -1.591754
C   10.063831   5.029449   0.531920
H    4.718740  -3.467780  -2.373005
H    7.681000  -1.927010  -2.262229
H    5.176149  -0.621285  -4.073777
H    5.202095  -1.182080   1.698202
H    2.666876  -0.013039  -0.070430
H    5.345979   3.578499  -1.620856
H    5.270673   3.071844   3.706528
H    9.238021   1.159139   1.909360
H    9.667782   3.679240  -3.426489
H   12.215115   2.169406  -1.680042
H   11.582547   5.261716   1.886759
H    9.015751   6.748760   0.150025

