%chk=mol_4882.chk
# wB97XD/Def2SVP opt freq pop=full gfinput

C 4 H 9 N 1 O 2

1 2
C    1.31912959  -0.71949977   0.49664980
C    2.80467892  -0.62074977   0.21105991
O    3.18118882   0.75558966   0.26261988
C    4.55562830   0.95369965  -0.04210998
C    5.44635773   0.54176980   1.10544968
N    6.30069733  -0.42280984   0.97596961
O    6.97590733  -0.59279972   2.18994927
H    0.98787957  -1.76119924   0.48041981
H    0.74596977  -0.15485993  -0.24641991
H    1.08498955  -0.28839990   1.47497940
H    3.01955891  -1.02853966  -0.78309971
H    3.36087871  -1.19096959   0.96220964
H    4.70457792   2.02656937  -0.19730993
H    4.83228779   0.43176982  -0.96408963
H    5.32378769   1.09404957   2.05367923
H    7.57881737  -1.33444941   1.99437928

