%chk=mol_6859.chk
# wB97XD/Def2SVP opt pop=full gfinput

C 6 H 9 N 1

1 2
C    1.769388  -0.007502   0.141540
C    4.657419   0.000151   0.198100
N    5.557741   0.033826   2.792713
C    5.737757   2.198148  -1.242741
C    7.155354   1.362549  -3.177631
C    7.159681  -1.362039  -3.172661
C    5.752137  -2.200624  -1.237336
H    1.041919  -0.001474  -1.800096
H    0.991672   1.660937   1.094586
H    0.999306  -1.686524   1.081925
H    7.481898  -0.032201   2.765312
H    4.976065  -1.565884   3.684134
H    5.407678   4.155923  -0.771764
H    8.159667   2.515868  -4.525025
H    8.161198  -2.509897  -4.528823
H    5.422626  -4.162972  -0.787676

