%chk=mol_6478.chk
# wB97XD/Def2SVP opt pop=full gfinput

C 4 H 5 N 1 O 1 S 1

1 2
C    1.826401  -0.130410  -0.011641
C    4.618812   0.144583  -0.005783
C    5.971516   2.382416  -0.007143
O    5.128207   4.747106  -0.013436
S    9.140965   1.756047   0.000756
C    8.485626  -1.413534   0.004951
N    6.081951  -2.033950   0.000964
H    0.873828   1.705327   0.008012
H    1.210993  -1.191718   1.653775
H    1.214848  -1.154623  -1.701472
H    6.640082   5.793844  -0.012113
H    9.973294  -2.816410   0.010507

