%chk=mol_0979.chk
# wB97XD/Def2SVP opt pop=full gfinput

C 4 H 9 N 1 O 1

1 2
C    3.077003  -1.765760  -0.526534
C    5.899215  -1.238167  -0.591050
C    6.484047   1.505488   0.078915
C    9.292086   2.048218   0.016384
N    9.905982   4.492578   0.563951
O   10.934428   0.494768  -0.471846
H    2.709055  -3.747157  -0.991237
H    2.071215  -0.587667  -1.897720
H    2.294317  -1.390857   1.351192
H    6.632901  -1.675790  -2.479132
H    6.862125  -2.508801   0.733573
H    5.782619   1.936005   1.979639
H    5.546705   2.775989  -1.262243
H    8.615715   5.815897   1.036760
H   11.759086   4.960834   0.564537

