%chk=mol_2505.chk
# wB97XD/Def2SVP opt freq pop=full gfinput

C 5 H 10 O 2

1 2
C    0.86772966  -0.11348996   0.16602993
C    2.37248921   0.00484000  -0.03807998
C    2.79417896   0.01233000  -1.50158942
O    2.23080921   1.13813949  -2.16818929
C    3.06451869   1.08049965   0.81834972
O    3.91012859   0.09330996   1.45480943
C    3.19129872  -0.98323959   0.81231970
H    0.60876977  -0.17112994   1.22927952
H    0.47700983  -1.01418960  -0.31956989
H    0.34170985   0.75226969  -0.24984990
H    2.47155905  -0.89834970  -2.01838923
H    3.88250852   0.08205997  -1.60523939
H    1.30506957   0.92650968  -2.37872910
H    2.43471909   1.58953941   1.55498934
H    3.65716863   1.82471931   0.27790990
H    3.86905861  -1.64700937   0.26661989
H    2.63186908  -1.57196939   1.54663932

