%chk=mol_0937.chk
# wB97XD/Def2SVP opt pop=full gfinput

C 6 H 12

1 2
C    1.765458  -0.162800  -0.127689
C    4.661255  -0.065403   0.120961
C    5.433208  -1.520341   2.520365
C    5.858661  -1.377081  -2.181481
C    5.475538   2.694485   0.112514
C    6.748212   3.939814   1.912195
H    1.117603   0.783556  -1.853330
H    0.841703   0.763166   1.479353
H    1.086668  -2.118307  -0.200179
H    4.593225  -0.684723   4.219551
H    7.489816  -1.544057   2.766105
H    4.802153  -3.491496   2.428166
H    5.304537  -0.458580  -3.953987
H    5.272714  -3.360084  -2.300326
H    7.927420  -1.339060  -2.075656
H    4.948361   3.763938  -1.570136
H    7.360086   3.053835   3.655373
H    7.215239   5.923933   1.669157

