%chk=mol_4527.chk
# wB97XD/Def2SVP opt freq pop=full gfinput

C 5 H 7 N 1 O 1

1 2
C    1.02305961  -0.30602989  -0.03198999
C    2.49673915   0.05434998   0.03147999
C    2.67785907   1.54368949   0.01262000
N    2.73004889   2.33893919  -1.00831962
O    2.61002898   1.62874937  -2.20926929
C    2.77680898   2.27196932   1.25266957
C    2.85714889   2.87563896   2.28885913
H    0.89546967  -1.39263940  -0.01095000
H    0.56104982   0.07499997  -0.94857961
H    0.47663981   0.11927995   0.81645966
H    3.03208899  -0.39444983  -0.81137967
H    2.93639874  -0.35133988   0.94947964
H    2.66464901   2.33894897  -2.87626910
H    2.93036890   3.41909862   3.20085883

