%chk=mol_6628.chk
# wB97XD/Def2SVP opt freq pop=full gfinput

C 4 H 6 O 2 S 1

1 2
C    1.10221958   0.12421995  -0.00080000
S    2.86851883  -0.05111998   0.00622000
O    3.22444892  -0.65961981   1.27508950
O    3.23292875  -0.67540973  -1.25240946
C    3.41429877   1.65659940  -0.00263000
C    4.88022852   1.69583929   0.00199000
C    6.08079767   1.73755932   0.00568000
H    0.80357969   0.66026974  -0.90352970
H    0.79754972   0.67147970   0.89313966
H    0.66004974  -0.87429971   0.00394000
H    3.00188899   2.14045930   0.88681966
H    3.00782871   2.12927914  -0.90076965
H    7.14709711   1.76041937   0.00903000

