%chk=mol_3055.chk
# wB97XD/Def2SVP opt pop=full gfinput

C 6 H 10 O 1

1 2
C    0.673631  -3.843854   0.161042
C    3.391095  -4.069847  -0.622759
C    4.628374  -6.281998  -0.467310
O    4.378439  -1.816499  -1.467675
C    6.950243  -1.764645  -2.274890
C    7.544883   0.894766  -3.049356
C    8.467353   1.571836  -5.307900
H   -0.468312  -3.162551  -1.423928
H    0.491915  -2.499125   1.722882
H   -0.119582  -5.651169   0.782195
H    3.682642  -7.965177   0.229847
H    6.586206  -6.517363  -1.013347
H    7.226388  -3.071202  -3.858915
H    8.196781  -2.288534  -0.705756
H    7.176915   2.346605  -1.642210
H    8.852271   0.191524  -6.775726
H    8.842595   3.542821  -5.737020

