%chk=mol_6323.chk
# wB97XD/Def2SVP opt freq pop=full gfinput

C 4 H 5 N 1 O 2

1 2
O    1.19381952  -0.01061000   0.27720991
N    2.60087895  -0.00098000   0.40584984
C    3.26230884  -1.20443952  -0.02979999
C    4.56414795  -0.64686972  -0.50474977
C    4.57579851   0.69177973  -0.52834982
C    3.23914886   1.12307966  -0.09075997
O    2.76543880   2.23408937  -0.25272989
H    1.00128961   0.92511964   0.05499998
H    2.70812893  -1.68259931  -0.84288967
H    3.37380886  -1.88156927   0.81983966
H    5.39309788  -1.26938951  -0.80955970
H    5.34836817   1.36420953  -0.85446966

