%chk=mol_0536.chk
# wB97XD/Def2SVP opt pop=full gfinput

C 4 H 6 N 2

1 2
N    1.824455  -0.163386   0.115557
C    4.018011  -0.083828   0.109415
C    6.754750   0.049851   0.038324
C    7.993542   2.063449   1.752343
C    9.962617  -0.002154   2.306581
N    8.001686  -1.891673   1.666682
H    7.509091   0.068427  -1.895603
H    6.882515   2.628099   3.409236
H    8.705742   3.755321   0.804948
H   11.579316  -0.005877   1.011098
H   10.650969  -0.087362   4.251959
H    8.635727  -3.447465   0.727658

