%chk=mol_5790.chk
# wB97XD/Def2SVP opt pop=full gfinput

C 5 H 9 N 1 O 1

1 2
N    5.018697  -1.390687  -2.256238
C    4.321256  -0.034223   0.056635
C    5.362684   2.668104   0.037795
O    8.065975   2.568383   0.069977
C    9.140549   5.037348  -0.008598
C   11.903007   4.827041   0.015401
C   14.167598   4.659535   0.032295
H    4.710974  -3.273705  -2.001579
H    6.928946  -1.189148  -2.487994
H    5.096761  -1.061195   1.678417
H    2.260793   0.001039   0.226351
H    4.698729   3.672418   1.722693
H    4.712958   3.681942  -1.648710
H    8.500669   6.120936   1.635879
H    8.521456   6.009858  -1.728589
H   16.174204   4.495602   0.045977

