%chk=mol_4820.chk
# wB97XD/Def2SVP opt pop=full gfinput

C 5 H 11 N 1 O 1

1 2
C    4.342950  -0.910187  -2.659317
C    4.702281   0.051892   0.026910
O    6.082197  -1.779801   1.443562
C    6.156463   2.524958   0.044087
C    4.753795   4.901609  -0.911793
N    5.958231   6.353864   1.153678
C    6.243618   3.957672   2.583180
H    3.232150   0.414360  -3.793569
H    3.382383  -2.743183  -2.648470
H    6.165968  -1.193400  -3.599399
H    2.853279   0.267831   0.933903
H    7.635344  -2.157765   0.534074
H    8.043600   2.335002  -0.809105
H    2.688476   4.828156  -0.760407
H    5.254818   5.527713  -2.816882
H    7.649290   7.133603   0.651785
H    8.009774   3.789241   3.644242
H    4.660877   3.584414   3.867816

