%chk=mol_2803.chk
# wB97XD/Def2SVP opt pop=full gfinput

C 6 H 10 O 1

1 2
C    1.876422  -0.058166   0.023811
C    4.762110   0.000000   0.000000
C    5.782506  -1.443373  -2.285624
C    5.672996   2.572238   0.000000
C    6.423746   4.692322   0.000000
C    7.334632   7.264561   0.000000
O    5.351553   8.908074  -0.751128
H    1.128129   0.923925   1.687393
H    1.178641  -2.006549   0.073038
H    1.082794   0.862981  -1.654266
H    5.434663  -0.957146   1.711525
H    5.159689  -0.582621  -4.064253
H    5.131079  -3.407252  -2.263174
H    7.848807  -1.459114  -2.287438
H    8.899495   7.482635  -1.335469
H    7.989327   7.839642   1.874363
H    6.123941  10.522146  -1.155152

