%chk=mol_6043.chk
# wB97XD/Def2SVP opt freq pop=full gfinput

C 5 H 7 N 1 O 1

1 2
O    0.88966972  -0.09534997  -0.07468998
C    2.11676908  -0.03823999  -0.04663998
C    2.87776899   1.26112962   0.19120993
N    4.22081852   1.21194959  -0.40554985
C    4.99437809   0.07051997   0.07022997
C    4.23791838  -1.21717954  -0.03443999
C    2.90378881  -1.29341948  -0.12781996
H    2.31935906   2.07184911  -0.28751990
H    2.92802906   1.45254946   1.26828945
H    4.71697807   2.07377911  -0.18465993
H    5.31918812   0.22218992   1.10598958
H    5.89721775  -0.00362000  -0.54597980
H    4.82306814  -2.13256907  -0.04168998
H    2.35869908  -2.22343922  -0.21627992

