%chk=mol_1240.chk
# wB97XD/Def2SVP opt pop=full gfinput

C 5 H 12 N 2

1 2
C    2.872252  -1.986915   0.068899
C    5.671371  -1.337019   0.058204
C    6.094613   1.519075   0.233381
C    8.885209   2.235092   0.095696
C   10.288822   1.337510   2.399688
N   12.085365  -0.312277   2.192120
N   13.124507  -0.932769   4.440724
H    2.613586  -4.036757  -0.022960
H    1.910400  -1.144872  -1.556983
H    1.958304  -1.300850   1.792915
H    6.534484  -2.073918  -1.674940
H    6.583485  -2.293863   1.652717
H    5.269898   2.232201   1.996156
H    5.097536   2.452978  -1.325454
H    9.060878   4.297124   0.039155
H    9.761740   1.468109  -1.615054
H    9.705406   2.140927   4.238089
H   14.812694  -1.824644   4.124346
H   12.046607  -2.273227   5.326628

