%chk=mol_0089.chk
# wB97XD/Def2SVP opt freq pop=full gfinput

C 3 H 7 N 1 O 1

1 2
C    0.98759961  -0.08732996  -0.05191998
C    2.49472904   0.03197999   0.06643997
C    2.89533901   1.47966933   0.06484997
N    3.41432858   2.02520919   1.11595964
O    3.68259859   3.37052870   0.83965969
H    0.68685979  -1.13933957  -0.06350998
H    0.62635976   0.38329986  -0.97254968
H    0.48832983   0.40424985   0.78986973
H    2.97801876  -0.45437986  -0.78671974
H    2.84311891  -0.45015982   0.98534960
H    2.71824884   2.05145931  -0.86370969
H    4.06449842   3.68394852   1.68099928

