%chk=mol_2150.chk
# wB97XD/Def2SVP opt freq pop=full gfinput

C 5 H 8 N 2

1 2
N    0.89013964   1.10406959  -0.80404973
N    2.21421909   0.98062962  -1.04482961
C    2.93408895   1.16868949   0.01461999
C    4.43232822   1.09961963  -0.05958998
C    4.99728775   2.51248908  -0.01539999
C    6.46687794   2.49991894  -0.05866998
C    7.66605711   2.49561906  -0.09862997
H    0.40554985   1.25877953  -1.69325936
H    0.50880980   0.21323991  -0.47244981
H    2.49275899   1.42275941   0.99658966
H    4.73330784   0.58670980  -0.98012960
H    4.78739834   0.50793982   0.79160970
H    4.66111803   3.02225876   0.89569962
H    4.60830832   3.09680891  -0.85806966
H    8.73155689   2.49417901  -0.13879995

