%chk=mol_7098.chk
# wB97XD/Def2SVP opt pop=full gfinput

C 6 H 9 N 1

1 2
C    1.781294  -0.068956   0.013719
C    4.601275  -0.004687   0.017877
C    5.931888   2.150489   0.000000
C    8.588843   2.150489   0.000000
C   10.837919   2.150489   0.000000
C   13.566684   2.150489   0.000000
N   14.520656   4.731061   0.020315
H    1.122403  -2.027336  -0.076345
H    1.019734   0.928082  -1.629700
H    1.023495   0.774977   1.742082
H    5.575391  -1.815195   0.037020
H    4.973778   3.965779  -0.012416
H   14.288503   1.168002  -1.672370
H   14.290185   1.151183   1.660635
H   13.854622   5.650621  -1.534136
H   16.435402   4.693588  -0.147758

