%chk=mol_5093.chk
# wB97XD/Def2SVP opt freq pop=full gfinput

C 6 H 11 N 1

1 2
C    1.46943951   0.27624989  -0.36191985
C    2.81750894  -0.08471997   0.17122993
C    3.07794881  -1.53092945   0.51902980
C    4.22969866  -1.93451929  -0.41046986
C    5.06318808  -0.65940976  -0.58607978
C    4.05684853   0.44905984  -0.49333981
N    3.62367845   0.96547967   0.79496968
H    1.41437948   1.32683957  -0.66796976
H    0.70279974   0.10811996   0.40203983
H    1.22330952  -0.33944985  -1.23398960
H    2.20399928  -2.16991925   0.35478985
H    3.37577868  -1.62846935   1.57006943
H    4.81528854  -2.77101898  -0.01908999
H    3.81987834  -2.23369908  -1.38303947
H    5.81395817  -0.57229978   0.20810993
H    5.58182812  -0.65959972  -1.55003941
H    3.97607851   1.08771956  -1.35976946
H    4.18940830   0.59747982   1.56052947

