%chk=mol_4678.chk
# wB97XD/Def2SVP opt freq pop=full gfinput

C 5 H 9 N 1 O 1

1 2
C    0.95712966  -0.00514000   0.23694991
C    2.42222929  -0.21168992  -0.08404997
N    2.76690888  -1.50165939  -0.43713984
C    3.24857879   0.84763968  -0.02340999
C    4.72033834   0.88722962  -0.23063992
C    5.56031752  -0.33641988   0.02593999
O    5.23346806   1.94840932  -0.58775973
H    0.73036975   1.02727962   0.52430981
H    0.65844971  -0.65328974   1.06798959
H    0.34034985  -0.25107992  -0.63398975
H    1.97362924  -2.07309937  -0.72486973
H    3.52484870  -1.56350946  -1.11227965
H    2.85095906   1.83327937   0.20625992
H    5.13809776  -0.94228965   0.83074969
H    6.55645752  -0.01883999   0.35000986
H    5.65446806  -0.92205960  -0.89072967

