%chk=mol_6723.chk
# wB97XD/Def2SVP opt freq pop=full gfinput

C 4 H 6 N 2 S 1

1 2
S    0.84367967  -0.03289999   0.01016000
C    2.50559902  -0.02236999   0.00290000
N    3.20177889   1.14476955  -0.00334000
C    4.64407825   1.24946964  -0.03372999
C    5.29585791  -0.09124997  -0.01093000
C    4.59094810  -1.22500944   0.00601000
N    3.22670865  -1.17823946   0.00661000
H    2.65145898   1.99370933  -0.00780000
H    4.95026779   1.84208941   0.83352971
H    4.91718817   1.79484928  -0.94204962
H    6.37912750  -0.12544996  -0.01192000
H    5.05161762  -2.20706916   0.01863999
H    2.69660902  -2.04270935   0.01607000

