%chk=mol_6108.chk
# wB97XD/Def2SVP opt pop=full gfinput

C 5 H 7 N 1 O 1

1 2
O    4.071264  -0.946980  -2.506759
C    4.493429  -0.083337   0.002948
C    5.476029   2.551225   0.016214
C    4.073153   4.756176  -0.044805
N    5.699471   6.769282  -0.018104
C    8.135290   5.904449   0.074852
C    8.060003   3.303770   0.086682
H    3.437639  -2.661868  -2.366844
H    5.841465  -1.362171   0.914665
H    2.704652  -0.189294   1.039425
H    2.051770   5.052977  -0.131317
H    5.180382   8.608553  -0.073680
H    9.710263   7.206603   0.102612
H    9.689382   2.067663   0.126517

