%chk=mol_2063.chk
# wB97XD/Def2SVP opt freq pop=full gfinput

C 6 H 9 N 1

1 2
N    0.95508969  -0.00332000  -0.01873999
C    2.41718912   0.00446000   0.01063000
C    2.97738886   1.43281937   0.00000000
C    4.42138815   1.43281937   0.00000000
C    5.61154795   1.43281937   0.00000000
C    7.01754761   1.43281937   0.00000000
C    7.71892738   2.57107902  -0.01145000
H    0.62763977  -0.96811968  -0.02523999
H    0.62816978   0.41159984  -0.89019966
H    2.79515886  -0.55675977  -0.85177970
H    2.75547910  -0.52100980   0.91106963
H    2.60408878   1.97965920   0.87433970
H    2.60862899   1.96537936  -0.88517964
H    7.53265762   0.47695982   0.01059000
H    7.23216724   3.54170871  -0.02100999
H    8.80362701   2.55274916  -0.01036000

