%chk=mol_6783.chk
# wB97XD/Def2SVP opt freq pop=full gfinput

C 5 H 12 N 2

1 2
C    0.93868965   0.01745999   0.15335993
C    2.45195913  -0.08256997  -0.03941999
C    2.82904911  -0.00349000  -1.52078938
N    3.17227888   0.97827965   0.73208970
C    4.15363836  -0.03520998   1.19433951
C    3.11947870  -1.13939953   0.90025967
N    3.73551846  -2.24458933   0.16254994
H    0.66055977   0.04116999   1.21323943
H    0.43695983  -0.84468967  -0.29938987
H    0.53758979   0.92351967  -0.31492987
H    3.91339850   0.00674000  -1.67618942
H    2.42621899   0.90722966  -1.98038924
H    2.42085910  -0.85869968  -2.07059908
H    2.62609911   1.37173951   1.49931943
H    5.06883812  -0.04576998   0.58951974
H    4.44352818   0.06469998   2.24622917
H    2.52766919  -1.44325948   1.77065933
H    4.38782835  -1.95782936  -0.56672978
H    3.06018877  -2.85858893  -0.29022992

