%chk=mol_2963.chk
# wB97XD/Def2SVP opt pop=full gfinput

C 5 H 6 O 2

1 2
C    6.037713  -4.406992   2.495629
C    6.796457  -2.017472   2.170218
C    5.752742  -0.378210   0.258590
C    6.503436   2.014032  -0.059111
O    5.453239   3.543010  -1.937347
C    6.126360   6.034708  -1.858357
O    7.521469   7.089516  -0.351905
H    6.875202  -5.573558   3.960904
H    4.580545  -5.261678   1.332314
H    8.264623  -1.258803   3.394874
H    4.288960  -1.138881  -0.966689
H    7.952535   2.913372   1.072930
H    5.175563   7.007634  -3.434048

