%chk=mol_3755.chk
# wB97XD/Def2SVP opt pop=full gfinput

C 5 H 8 O 2

1 2
O    4.714621  -2.370416   1.668326
C    4.445732  -0.480709  -0.231699
C    6.380301   1.620724   0.193527
C    9.032759   0.815303  -0.458655
C   10.809630   0.246571   1.256951
C    9.726401   0.699539  -3.176460
O    8.221726   1.197538  -4.864835
H    3.482463  -3.680506   1.291552
H    2.533764   0.293531  -0.080559
H    4.650654  -1.369371  -2.087958
H    6.305506   2.228648   2.174036
H    5.872324   3.270681  -0.951383
H   10.374029   0.296044   3.264653
H   12.712868  -0.320120   0.740508
H   11.688560   0.137988  -3.595015

