%chk=mol_5379.chk
# wB97XD/Def2SVP opt freq pop=full gfinput

C 5 H 11 N 1 O 1

1 2
C    2.23592925  -1.03624964  -0.52052981
O    3.42698884  -0.33281988  -0.19222993
C    3.25068879   1.08710957  -0.31983986
C    4.58227825   1.80165935   0.01512999
N    5.67289782   1.27707958  -0.82541972
C    4.58495855   3.30124879  -0.11034995
C    3.57063866   4.10234833  -0.46516982
H    2.42271900  -2.10592914  -0.39588988
H    1.95745921  -0.84940964  -1.56193948
H    1.42041945  -0.74249977   0.14688994
H    2.46654916   1.41136944   0.37479985
H    2.93654895   1.31545949  -1.34589946
H    4.84281826   1.55312943   1.05153966
H    5.41936779   1.41944957  -1.80219936
H    5.65435791   0.25962991  -0.70694977
H    5.53866816   3.77201843   0.13013995
H    2.58430910   3.72991848  -0.71732968
H    3.71669865   5.17815781  -0.51187980

