%chk=mol_4533.chk
# wB97XD/Def2SVP opt freq pop=full gfinput

C 4 H 6 N 2 O 1

1 2
C    1.02760959  -0.33695990  -0.01394999
C    2.49200916   0.06350998   0.01657999
C    2.63175893   1.55923939   0.03284999
N    2.62962914   2.37578917  -0.97564960
O    2.49145913   1.68515933  -2.18616939
C    2.74990892   2.23864913   1.30330956
N    2.84247875   2.74842906   2.34399915
H    0.93101966  -1.42698944  -0.01877999
H    0.52799982   0.05467998  -0.90600967
H    0.49510983   0.04996998   0.86124969
H    3.01460886  -0.34800988  -0.85291964
H    2.96975875  -0.35421988   0.90991968
H    2.50557899   2.40582919  -2.84576893

