%chk=mol_0111.chk
# wB97XD/Def2SVP opt freq pop=full gfinput

C 3 H 5 N 1 O 1

1 2
O    1.17568958  -0.20534992   0.29115990
C    2.36276913  -0.04484998   0.15676995
C    3.34397864   1.11915958  -0.06405997
C    4.29462862   0.01231000  -0.55522978
N    3.37302876  -0.95221967   0.05594998
H    3.64288878   1.62740934   0.85722965
H    3.03245878   1.84049928  -0.82121968
H    4.36535835  -0.10573996  -1.64050937
H    5.28774786   0.00622000  -0.10088997
H    3.12314892  -1.87979925  -0.25920990

