%chk=mol_2053.chk
# wB97XD/Def2SVP opt freq pop=full gfinput

C 7 H 6

1 2
C    0.88638967   0.02474999  -0.05569998
C    2.08631921   0.01927999  -0.04836998
C    3.61846876   0.00872000  -0.03251999
C    4.81871796  -0.00563000  -0.00982000
C    6.25130749  -0.02930999   0.03358999
C    6.99688768  -0.74947971  -1.05937958
C    7.02453756   0.75006968  -0.99719965
H   -0.17857993   0.02845999  -0.06023998
H    6.68346739  -0.07818997   1.02934957
H    6.43260765  -1.21286952  -1.86091936
H    7.89679718  -1.28797948  -0.78534973
H    7.94424725   1.22934961  -0.68185973
H    6.47934771   1.29908955  -1.75655925

