%chk=mol_6985.chk
# wB97XD/Def2SVP opt freq pop=full gfinput

C 5 H 12 N 2

1 2
C    2.70789909  -1.21363962  -0.45082983
C    2.22540903   0.05641998   0.23547992
C    3.28734875   1.13877952   0.26240990
N    4.47788811   0.87216967   1.10759962
C    3.50486851   1.95195937  -0.99054962
C    2.81660891   2.58505917   0.18203993
N    3.53410864   3.60818863   0.95819962
H    1.90419936  -1.95627928  -0.48184982
H    3.55581856  -1.65742946   0.08081997
H    3.02499890  -1.00994968  -1.47883952
H    1.91935921  -0.17697993   1.26246953
H    1.32801950   0.41286984  -0.28432989
H    4.18830824   0.57055980   2.03732920
H    5.02252817   0.10492996   0.71502972
H    2.90289879   1.73582935  -1.86528933
H    4.51037836   2.27647924  -1.23251951
H    1.75176930   2.77283907   0.07121997
H    4.48035860   3.24821877   1.12307966
H    3.13085890   3.67095852   1.89205933

