%chk=mol_4291.chk
# wB97XD/Def2SVP opt freq pop=full gfinput

C 4 H 2 N 2 O 1

1 2
C    1.00911963  -0.04047999  -0.00013000
C    2.20924926   0.01919999   0.00027000
C    3.62129855   0.09173997   0.00073000
N    4.38494873   1.16069961   0.00191000
N    5.68732834   0.69493973   0.00187000
C    5.60234785  -0.61535972   0.00067000
O    4.32137823  -1.08010960  -0.00012000
H   -0.05508998  -0.08891997  -0.00047000
H    6.39672756  -1.34612954   0.00024000

