%chk=mol_0289.chk
# wB97XD/Def2SVP opt pop=full gfinput

C 4 H 8 N 2

1 2
C    1.841897   0.059281  -0.109869
C    4.707497  -0.092351   0.003742
C    5.702853  -2.457287   1.304969
N    6.044931  -1.556605   3.889699
N    6.479531   0.967729   3.966800
C    5.702835   1.839422   1.820335
H    1.079468  -1.442598  -1.310355
H    1.241040   1.879163  -0.891629
H    0.982695  -0.117125   1.765798
H    5.548822   0.184116  -1.863950
H    7.533979  -3.002151   0.504878
H    4.416139  -4.070432   1.198162
H    7.357592  -2.564094   4.881465
H    5.734185   3.854928   1.319426

