%chk=mol_4052.chk
# wB97XD/Def2SVP opt pop=full gfinput

C 5 H 7 N 1 O 1

1 2
C    1.918167  -0.047886  -0.010734
C    4.695951   0.190050  -0.002211
N    6.094480   2.249776   0.007634
C    8.534381   1.349775   0.012132
C   10.710816   3.093463   0.022715
C    8.495680  -1.248636   0.004139
O    6.040982  -2.017150  -0.004989
H    1.026102   1.816915   0.005386
H    1.275508  -1.087594   1.656326
H    1.283256  -1.055015  -1.700602
H   12.502863   2.060973   0.050418
H   10.645375   4.315492   1.689944
H   10.681866   4.289811  -1.664036
H    9.911633  -2.717577   0.003761

