%chk=mol_1472.chk
# wB97XD/Def2SVP opt pop=full gfinput

C 5 H 6 N 2

1 2
C    5.117832  -2.210356   0.580033
C    4.243115   0.148797   0.297764
N    5.667515   2.363669   0.174970
C    4.714753   4.772787  -0.116955
C    6.759172   6.371476  -0.141181
N    8.956923   5.046797   0.125232
C    8.254399   2.670089   0.309159
H    3.813014  -3.794589   0.649745
H    7.112570  -2.653081   0.748917
H    2.215137   0.438946   0.141522
H    2.710415   5.127621  -0.277922
H    6.759418   8.408015  -0.336881
H    9.528320   1.089956   0.541633

