%chk=mol_0017.chk
# wB97XD/Def2SVP opt freq pop=full gfinput

C 4 H 8

1 2
C    0.92537969  -0.12222996  -0.10118996
C    2.42192912   0.03900999   0.11307996
C    2.82757902   1.48365951   0.08284996
C    3.38789868   2.12768936   1.11424959
H    0.65344977  -1.18270957  -0.08831996
H    0.61480981   0.29386988  -1.06608963
H    0.35576984   0.38277987   0.68680972
H    2.96258879  -0.49475983  -0.67635977
H    2.70231891  -0.42720985   1.06457961
H    2.65807891   2.02395916  -0.84659970
H    3.58176851   1.63170946   2.06030917
H    3.66529846   3.17416883   1.03099966

