%chk=mol_5435.chk
# wB97XD/Def2SVP opt pop=full gfinput

C 5 H 9 N 1 O 1

1 2
C    8.182401  -1.482471  -1.880240
O   10.439622  -0.098152  -1.420469
N    9.784114   2.408173  -0.862584
C   11.784181   3.817171  -0.547775
C   14.445954   2.785362  -0.762656
C   11.329021   6.534427   0.057334
C   13.077245   8.324962   0.416137
H    8.695367  -3.408896  -2.418018
H    7.114706  -0.622022  -3.429910
H    7.025492  -1.550671  -0.168564
H   14.681849   1.870810  -2.601340
H   14.750295   1.387928   0.732231
H   15.900270   4.231286  -0.594432
H    9.339178   7.031728   0.200859
H   15.092563   7.993164   0.303925
H   12.492337  10.245472   0.844103

