%chk=mol_6512.chk
# wB97XD/Def2SVP opt freq pop=full gfinput

C 4 H 4 N 2 S 1

1 2
C    2.83235884  -1.19082952   0.43589982
C    2.29421902   0.00406000   0.16366994
C    3.02261901   1.22493958   0.10788996
C    2.55903888   2.50831914  -0.16046993
N    3.50167871   3.52143860  -0.14924996
N    4.70553827   3.05479908   0.12467995
S    4.72224855   1.40408945   0.37092987
H    2.20296931  -2.07653928   0.45898983
H    3.88593841  -1.34715950   0.64259976
H    1.22387958   0.05332998  -0.02956999
H    1.53007936   2.76573896  -0.37375984

