%chk=mol_0537.chk
# wB97XD/Def2SVP opt freq pop=full gfinput

C 6 H 10

1 2
C    0.97427964   0.01445999  -0.04342998
C    2.49742889  -0.00333000  -0.00502000
C    3.05626869  -1.27490950   0.64988977
C    3.38881874  -0.90015966   2.09545922
C    3.52781868   0.58408976   2.02697921
C    3.04050899   1.07565963   0.88352966
H    0.59656978  -0.80110967  -0.66954976
H    0.60537976   0.95783961  -0.46138984
H    0.53936982  -0.10186996   0.95613968
H    2.89205885   0.09897996  -1.02162957
H    3.97985840  -1.57213950   0.13482994
H    2.37226915  -2.12860918   0.59515983
H    4.31303835  -1.38295949   2.42583919
H    2.57884908  -1.17445958   2.77941895
H    3.94393873   1.18229949   2.82607889
H    3.01321888   2.12693930   0.62972975

