%chk=mol_7021.chk
# wB97XD/Def2SVP opt freq pop=full gfinput

C 6 H 13 N 1

1 2
C    1.25981963  -0.36552987  -0.61380982
C    2.77050900  -0.20937993  -0.57269979
C    3.20436883   0.78070968   0.50780982
C    4.69285822   0.96001965   0.51856977
C    5.41635799   1.24071956   1.81854928
N    5.52354813  -0.05655998   1.15773964
C    6.79750729  -0.26410991   0.47637981
H    0.97446966  -1.09160960  -1.38260949
H    0.77307969   0.58620983  -0.84872967
H    0.87494969  -0.72106969   0.34738988
H    3.12807870   0.12669995  -1.55323946
H    3.22914886  -1.18761957  -0.38756984
H    2.84535909   0.43707982   1.48729944
H    2.73835897   1.75662935   0.32484987
H    5.05901814   1.43771946  -0.38359985
H    4.84812832   1.24854958   2.74036908
H    6.27190733   1.90424931   1.80423927
H    6.65239716  -0.93066967  -0.38051987
H    7.50175762  -0.74991971   1.15893960
H    7.26867723   0.65619975   0.10887996

