%chk=mol_0715.chk
# wB97XD/Def2SVP opt freq pop=full gfinput

C 6 H 8

1 2
C    1.56523943  -0.53088975   1.10831964
C    2.33250904  -0.10877996   0.09549996
C    3.08514881   1.19314945   0.09383996
C    4.59697866   0.97280961   0.00652000
C    5.32019806   2.25303912  -0.02432999
C    5.91475773   3.29776883  -0.04994998
H    1.03873956  -1.47872949   1.04893959
H    1.44198954   0.05379998   2.01487923
H    2.41758919  -0.72819972  -0.79539967
H    2.84657907   1.77852941   0.99136966
H    2.74348903   1.78811932  -0.76273966
H    4.84117794   0.39666986  -0.89435965
H    4.93876839   0.38185987   0.86503971
H    6.44208765   4.22264814  -0.07240997

