%chk=mol_1124.chk
# wB97XD/Def2SVP opt pop=full gfinput

C 4 H 1 N 1 O 1

1 2
O    1.781747  -0.086209   0.000000
C    4.090596  -0.095186   0.000000
C    5.481113   2.240308   0.000000
C    6.623244   4.200748   0.000000
C    8.076992   6.705429   0.000000
N    9.198525   8.590374   0.000000
H    5.230649  -1.836247   0.000000

