%chk=mol_4483.chk
# wB97XD/Def2SVP opt freq pop=full gfinput

C 4 H 8 N 2 O 1

1 2
C    0.72158974   0.01489999   0.05672998
C    2.18708920   0.03656999   0.34836987
C    3.02189875   0.96042961  -0.14230995
N    4.36124849   0.95307964   0.14330995
C    5.23748827   1.91139936  -0.29485989
N    6.51986742   1.65929937   0.08636997
O    4.96050787   2.90709877  -0.94817960
H    0.45321983  -0.92707962  -0.43116984
H    0.41659987   0.83744967  -0.59788978
H    0.15507995   0.09305996   0.98963964
H    2.55648923  -0.75359976   0.99607962
H    2.67404890   1.76173937  -0.79307967
H    4.71876812   0.26067990   0.78461969
H    6.82470703   0.69776976   0.08722997
H    7.18226719   2.31318903  -0.31307989

