%chk=mol_3171.chk
# wB97XD/Def2SVP opt pop=full gfinput

C 6 H 8 O 1

1 2
C    5.979944  -0.776923   0.043861
C    8.225354   0.137459  -0.649499
O    8.998082   2.526564   0.006255
C   11.087590   3.613610  -1.141508
C   11.620266   3.382591  -3.611645
C   12.604870   5.215625   0.487757
C   12.245577   5.551014   2.973333
H    5.411854  -2.676873  -0.469295
H    4.672801   0.365416   1.134270
H    9.588301  -0.953140  -1.711865
H   10.427017   2.285926  -4.865856
H   13.235208   4.317798  -4.461643
H   14.163913   6.221527  -0.400679
H   10.735023   4.609590   3.993124
H   13.474238   6.791714   4.047113

