%chk=mol_4791.chk
# wB97XD/Def2SVP opt freq pop=full gfinput

C 4 H 8 N 2 O 1

1 2
C    0.99387962   0.06423997  -0.13071994
C    2.49060893  -0.04921998  -0.03416999
N    3.15735865  -1.16409957  -0.00404000
O    2.30014896  -2.27016902  -0.04263999
C    3.28676891   1.20332956  -0.00167000
C    2.85357881   2.43235898   0.75962973
N    3.83735847   1.53063941   1.32718956
H    0.69123971   1.08241963  -0.38672987
H    0.55047983  -0.21071993   0.83011973
H    0.61483973  -0.60620975  -0.90708965
H    2.92156887  -3.01533890   0.05691998
H    3.96266842   1.33983946  -0.83900970
H    1.89086926   2.44448924   1.25474954
H    3.21195865   3.39907861   0.42794985
H    4.79078817   1.88106930   1.22688961

