%chk=mol_0731.chk
# wB97XD/Def2SVP opt pop=full gfinput

C 5 H 4 O 1

1 2
C    1.830464  -0.001039  -0.080635
C    4.362905   0.013152  -0.004687
C    5.710015  -2.457664   0.034166
O    8.015991  -2.660980   0.103179
C    5.727930   2.329182   0.037700
C    6.880606   4.283423   0.073491
H    0.766643   1.755386  -0.111437
H    0.738958  -1.736450  -0.114461
H    4.487514  -4.145643  -0.003553
H    7.924775   6.003773   0.105881

