%chk=mol_4288.chk
# wB97XD/Def2SVP opt freq pop=full gfinput

C 4 H 2 N 2 O 1

1 2
C    1.00451970  -0.00045000   0.00018000
C    2.20580935   0.00172000   0.00045000
C    3.62557864   0.00098000   0.00079000
N    4.32130861   1.14118958   0.00181000
O    5.64688778   0.68328971   0.00171000
C    5.57668781  -0.67539978   0.00065000
N    4.35573816  -1.15170956  -0.00001000
H   -0.06031998  -0.00180000  -0.00029000
H    6.51451731  -1.21010959   0.00048000

