%chk=mol_6053.chk
# wB97XD/Def2SVP opt freq pop=full gfinput

C 4 H 8 N 2 O 1

1 2
O    0.92337966  -0.00137000   0.16518994
C    2.35864902   0.02595999   0.10227996
C    2.81258893   1.30140948  -0.61157978
N    4.04766846   1.10320961  -1.33825958
C    4.12973833  -0.03757999  -2.07698917
N    3.57875872  -1.16350949  -1.82267928
C    2.86342883  -1.27855945  -0.54037982
H    0.63434976   0.75197971   0.70667976
H    2.70938897   0.04541998   1.14099956
H    2.94385910   2.10627913   0.12105995
H    2.03755927   1.64741933  -1.30628955
H    4.38215828   1.93790925  -1.81032932
H    4.73618793   0.08497997  -2.99052882
H    2.02829933  -1.97340930  -0.68494976
H    3.54904890  -1.77085924   0.16209994

