%chk=mol_3745.chk
# wB97XD/Def2SVP opt pop=full gfinput

C 5 H 8 O 2

1 2
O    0.580807  -1.021095   0.259989
C    3.117538  -1.761848   0.788809
C    4.512761  -2.336098  -1.682518
C    3.531275  -4.683913  -2.958026
C    4.989538  -6.569746  -3.806551
C    4.485851   0.337807   2.200208
O    3.389262   2.202192   3.053249
H    0.152350   0.296063   1.486610
H    3.073186  -3.416568   2.028829
H    6.547542  -2.520838  -1.325322
H    4.265338  -0.753472  -2.999732
H    1.491259  -4.803948  -3.214216
H    7.033579  -6.529854  -3.635833
H    4.151086  -8.199843  -4.731515
H    6.520670   0.034847   2.544176

