%chk=mol_7019.chk
# wB97XD/Def2SVP opt freq pop=full gfinput

C 7 H 10

1 2
C    0.94713962  -0.00222000   0.05020998
C    2.46141911   0.00883000   0.01312000
C    3.17198896   1.04580963   0.91878968
C    4.24333811  -0.03068999   1.23307955
C    3.18456888  -1.09043956   0.83107972
C    5.43446779   0.00961000   0.40334985
C    6.41915751   0.04193998  -0.28360990
H    0.55549979  -0.86114967  -0.50401980
H    0.54466975   0.90617967  -0.40925986
H    0.56758976  -0.05949998   1.07555962
H    2.82131886   0.05430998  -1.02477968
H    2.59315896   1.34699953   1.80078936
H    3.51783872   1.95128930   0.41083983
H    4.50092793  -0.07268997   2.29853916
H    3.54077864  -1.94741929   0.25121990
H    2.61010909  -1.46937943   1.68565941
H    7.29126740   0.07036997  -0.89492965

