%chk=mol_5971.chk
# wB97XD/Def2SVP opt freq pop=full gfinput

C 6 H 13 N 1

1 2
C    1.02941966  -0.03093999   0.00313000
C    2.54661894   0.00650000   0.05530998
C    3.08702874   1.14704955   0.90118968
C    4.49623823   0.67619979   1.19883955
C    4.33162832  -0.82954967   1.38709950
C    5.53468800  -1.61985934   0.89182967
N    3.08707905  -1.20055962   0.69253975
H    0.67967975  -0.87355965  -0.60348976
H    0.63729978   0.88976967  -0.44051981
H    0.59306979  -0.13339995   1.00359964
H    2.94755888   0.08438997  -0.96355969
H    2.52101922   1.26158953   1.83395922
H    3.07625866   2.10425925   0.37109986
H    5.14877796   0.90308970   0.34650987
H    4.91084814   1.16368961   2.08623910
H    4.18628836  -1.04379964   2.45285916
H    5.70719767  -1.46213937  -0.17774993
H    5.39025784  -2.69314885   1.05561960
H    6.43953753  -1.31677949   1.42861950
H    3.24573874  -1.92756927  -0.00336000

