%chk=mol_5667.chk
# wB97XD/Def2SVP opt pop=full gfinput

C 4 H 10 N 2 O 1

1 2
N    3.638554  -1.181230  -2.402938
C    4.180943  -0.067274   0.081825
C    5.724245   2.340123  -0.172305
N    8.037345   2.061880  -1.741439
C    4.359844   4.814682  -0.900889
O    5.706916   6.190610   1.070076
C    6.393076   3.803282   2.258997
H    2.604137  -2.787951  -2.147542
H    5.318351  -1.773338  -3.148870
H    5.205874  -1.459549   1.222766
H    2.391033   0.313865   1.049422
H    9.092568   3.681130  -1.788097
H    7.597871   1.709333  -3.586965
H    2.319903   4.860073  -0.553142
H    4.745575   5.583857  -2.781242
H    8.371770   3.777941   2.860063
H    5.181553   3.432139   3.896313

