%chk=mol_0699.chk
# wB97XD/Def2SVP opt freq pop=full gfinput

C 5 H 12 O 1

1 2
C    0.96988964  -0.10360996  -0.00157000
C    2.49577904  -0.00090000  -0.00976000
C    3.05312872  -0.77256972  -1.21253955
C    2.98825884   1.46109939  -0.02234999
C    2.50169921   2.28364921   1.16647959
O    4.41636848   1.48636937  -0.01145000
H    0.54731983   0.30929986   0.91967964
H    0.64887977  -1.14968956  -0.06145998
H    0.53139979   0.43269983  -0.85052973
H    2.88021898  -0.49518982   0.89137965
H    2.72964883  -0.32097986  -2.15717912
H    2.70964885  -1.81306934  -1.20053959
H    4.14804840  -0.79034972  -1.20169950
H    2.66840887   1.95521927  -0.94753963
H    2.77286911   1.80207932   2.11264920
H    1.41837955   2.43101907   1.14488947
H    2.97902894   3.27012897   1.16837955
H    4.71523809   1.04772961   0.80318969

