%chk=mol_0590.chk
# wB97XD/Def2SVP opt freq pop=full gfinput

C 5 H 10 O 1

1 2
C    0.74006975   1.27858949  -0.20171992
C   -0.72514969   1.23582959   0.21997991
C   -1.38315952  -0.05594998  -0.24757992
O   -0.66451973  -1.19248950   0.23403992
C    0.67681974  -1.22796953  -0.25542989
C    1.45421946  -0.00371000   0.21031992
H    0.80182970   1.39639938  -1.29055941
H    1.23591948   2.14742923   0.24526991
H   -1.26189959   2.10307932  -0.17834993
H   -0.77510971   1.28830957   1.31466949
H   -2.40316916  -0.11693996   0.14336994
H   -1.44355953  -0.09973996  -1.34073949
H    1.14788961  -2.13762903   0.12991995
H    0.66335976  -1.29966950  -1.34938943
H    1.53280950  -0.02394999   1.30428958
H    2.47098899  -0.02094999  -0.19532993

