%chk=mol_4665.chk
# wB97XD/Def2SVP opt pop=full gfinput

C 5 H 11 N 1 O 1

1 2
C    2.109728   0.133623   0.311143
C    4.962629   0.093201  -0.138536
N    5.507890  -1.382939  -2.424953
C    5.953091   2.816259  -0.369064
C    5.979812   4.420938   2.053754
C    8.762962   4.843236   1.437515
O    8.705950   2.917284  -0.497640
H    1.650676   1.153413   2.052696
H    1.355028  -1.785678   0.493313
H    1.110951   1.075481  -1.239415
H    5.881565  -0.848468   1.461287
H    4.680323  -0.566786  -3.958920
H    4.757839  -3.146772  -2.264818
H    5.142889   3.819250  -1.995778
H    5.654798   3.388714   3.814053
H    4.799337   6.113737   2.001673
H    9.227136   6.693580   0.640712
H   10.084107   4.374168   2.954530

