%chk=mol_5151.chk
# wB97XD/Def2SVP opt pop=full gfinput

C 4 H 7 N 1 O 2

1 2
C    1.895509   0.008957  -0.089516
N    4.602390   0.345045   0.176557
C    6.231844  -1.868618   0.036604
C    6.743280  -2.723284  -2.658864
O    5.306842  -2.406188  -4.454973
C    5.685373   2.709584   0.011735
O    7.960320   3.126892  -0.073000
H    0.907692   1.810603   0.136098
H    1.238848  -1.308239   1.361189
H    1.468090  -0.748596  -1.962178
H    5.388856  -3.430779   1.097062
H    8.063140  -1.422378   0.892631
H    8.478653  -3.855986  -2.894286
H    4.288186   4.254869   0.011112

