%chk=mol_1089.chk
# wB97XD/Def2SVP opt freq pop=full gfinput

C 4 H 5 N 1 O 1

1 2
N    5.35598803  -1.90551925   0.04481998
C    4.57490826  -1.06032968   0.02493999
C    3.59500861   0.00000000   0.00000000
C    4.39731836   1.25910950   0.03629998
C    4.83234787   1.96683931  -1.22360957
O    3.69664860   2.40768909  -0.46725982
H    2.93558884  -0.04707998   0.87216967
H    2.97173882  -0.05812998  -0.89851964
H    4.97342777   1.39425957   0.94419968
H    4.64670849   1.50157940  -2.18443942
H    5.72623825   2.57921910  -1.18638957

