%chk=mol_2275.chk
# wB97XD/Def2SVP opt pop=full gfinput

C 7 H 10

1 2
C    3.557277   0.707797   2.712891
C    5.793654   1.864064   2.402428
C    7.190484   1.968188  -0.072433
C   10.023410   1.641378   0.243416
C   11.083433  -0.659514   0.020749
C   11.651220   3.824825   0.689013
C   10.917288   6.228424   0.972774
H    2.622184   0.699085   4.537421
H    2.608861  -0.231680   1.154112
H    6.652894   2.808738   4.017577
H    6.765711   3.752958  -1.026235
H    6.469459   0.491215  -1.341857
H    9.938995  -2.325119  -0.330078
H   13.105610  -0.960151   0.196928
H   13.670506   3.442930   0.790869
H    8.958776   6.823348   0.917386
H   12.314986   7.699084   1.280138

