%chk=mol_5824.chk
# wB97XD/Def2SVP opt freq pop=full gfinput

C 4 H 6 N 2 O 1

1 2
N    1.02750957   0.01794999  -0.13545996
C    2.37119889  -0.01717999  -0.02626999
N    3.13100886  -1.03991961   0.06742997
C    3.09949899   1.21762955   0.00000000
C    3.69457865   2.24833918   0.00000000
C    4.41657829   3.49887872   0.00000000
O    3.51100850   4.58082819  -0.17408992
H    0.58884978   0.89566970   0.12293995
H    0.53068978  -0.79390973   0.20587991
H    2.56462908  -1.88728929   0.01815999
H    5.15519762   3.53756881  -0.80640972
H    4.94468784   3.65117860   0.94570965
H    3.04528880   4.41671848  -1.01120961

