%chk=mol_4559.chk
# wB97XD/Def2SVP opt pop=full gfinput

C 5 H 11 N 1 O 1

1 2
C    3.843835  -7.878798   1.212883
C    6.227687  -6.671489   2.166703
C    7.858804  -7.959319   3.628784
O    6.495178  -4.206228   1.377591
C    8.653301  -2.819868   2.244541
C    8.561177  -0.144299   1.131001
N    6.394361   1.300793   2.073030
H    3.730055  -7.709044  -0.846446
H    2.194350  -6.941701   2.038221
H    3.738861  -9.890429   1.684899
H    7.481766  -9.904716   4.157700
H    9.592893  -7.153294   4.352833
H   10.384460  -3.747648   1.582759
H    8.659727  -2.723776   4.315360
H    8.425287  -0.259422  -0.931446
H   10.298346   0.868953   1.613278
H    4.801303   0.251296   1.767215
H    6.194163   2.903035   1.026046

