%chk=mol_6882.chk
# wB97XD/Def2SVP opt freq pop=full gfinput

C 5 H 8 N 2

1 2
C    1.06762958   0.11749995   0.18001993
C    2.49213910  -0.10667995  -0.19039993
N    3.28887892   0.84359968  -0.57969981
N    4.54084826   0.35336986  -0.87606966
C    5.25666761   0.03176999   0.35469988
C    4.52853823  -1.04446959  -0.41640985
C    3.14531875  -1.43976951  -0.05147998
H    0.50796980  -0.81789970   0.10184997
H    0.62167978   0.85953969  -0.48755983
H    1.01724958   0.48254982   1.20926952
H    6.33633757   0.06711997   0.28153989
H    4.85506773   0.40461984   1.28890944
H    5.08136845  -1.75657940  -1.00739968
H    3.06749868  -1.81073940   0.97272962
H    2.70852900  -2.14796901  -0.75900972

