%chk=mol_3572.chk
# wB97XD/Def2SVP opt pop=full gfinput

C 6 H 8 O 1

1 2
O    2.011292   0.251523  -0.432993
C    4.664468   0.006652  -0.133830
C    5.408226  -2.451296   1.231875
C    6.104590  -1.611993   3.861901
C    6.429037  -3.091686   5.877785
C    6.297021   1.101843   3.848786
C    5.517717   2.030095   1.635104
H    1.379954  -1.334430  -1.100803
H    5.569023   0.153521  -1.986499
H    7.084678  -3.273006   0.326318
H    3.886751  -3.851054   1.241002
H    6.213117  -5.127961   5.741460
H    6.890565  -2.317428   7.721497
H    6.912958   2.219729   5.442165
H    5.413026   4.018087   1.182704

