%chk=mol_2383.chk
# wB97XD/Def2SVP opt pop=full gfinput

C 5 H 6 O 2

1 2
C    1.635161  -0.080427  -0.010696
C    4.430822   0.005197  -0.005386
C    5.954073   2.112147  -0.007200
O    5.535273   4.564520  -0.013379
O    8.432014   1.489444  -0.001568
C    8.533720  -1.076860   0.003836
C    6.133465  -2.078359   0.001852
H    0.817136   1.820146   0.007937
H    0.941046  -1.090920   1.654663
H    0.947150  -1.055941  -1.699355
H    7.232530   5.272015  -0.012113
H   10.408498  -1.889159   0.008560
H    5.662546  -4.067201   0.004819

