%chk=mol_3334.chk
# wB97XD/Def2SVP opt pop=full gfinput

C 5 H 8 O 2

1 2
C    3.444347  -0.868046  -2.439844
O    3.935147   0.302224  -0.071847
C    5.709260   2.375423  -0.114139
C    4.676467   4.945564  -1.094700
C    6.007401   6.155651   1.187693
O    6.674229   8.288679   1.695406
C    6.271188   3.580048   2.507912
H    2.091076  -2.400179  -2.147882
H    5.190228  -1.653945  -3.218374
H    2.634675   0.501344  -3.758703
H    7.465382   1.813173  -1.070624
H    2.620918   5.151979  -1.043469
H    5.409303   5.543247  -2.928792
H    8.151504   3.196491   3.265692
H    4.835205   3.254392   3.957464

