%chk=mol_4754.chk
# wB97XD/Def2SVP opt freq pop=full gfinput

C 4 H 5 N 1 O 2

1 2
C    1.29012954  -0.36742985   0.49475983
C    2.50564909  -0.21357991  -0.03403999
N    3.22913861   0.93335962   0.13778995
C    4.48156834   1.14421952  -0.40077984
O    5.13587761   0.37932986  -1.09203959
C    5.05545855   2.50699925  -0.06494997
O    4.44285822   3.28309870   0.65381974
H    0.73917973  -1.29004955   0.33917987
H    0.81030965   0.40471986   1.08631968
H    2.96768880  -1.00164962  -0.62783980
H    2.84313893   1.69726944   0.68961978
H    6.03534794   2.71469903  -0.52169979

