%chk=mol_6163.chk
# wB97XD/Def2SVP opt freq pop=full gfinput

C 4 H 7 N 1 O 2

1 2
O    2.13079929  -0.12540996  -1.38503945
C    2.28149891   0.15817994   0.00546000
C    3.39998865   1.17611957   0.19887993
N    3.21281886   2.43820906  -0.55073977
C    2.89203906   3.24410868   0.63467973
C    3.26537871   2.01437926   1.47604942
O    3.33263874   1.77655935   2.66470885
H    1.49946940  -0.86265963  -1.45880938
H    2.51788902  -0.77223969   0.53184980
H    1.32083952   0.53377980   0.37463984
H    4.39743853   0.74533975   0.06150997
H    2.48661900   2.37555909  -1.26745951
H    3.54033852   4.10967827   0.78501970
H    1.84121931   3.53132868   0.72303969

