%chk=mol_6168.chk
# wB97XD/Def2SVP opt freq pop=full gfinput

C 4 H 4 N 2 O 1

1 2
O    2.63681912  -1.07260954   0.07001998
C    2.13365912   0.04774998   0.00963000
C    2.88887882   1.27187955  -0.00596000
N    2.35537910   2.47671914  -0.07060997
C    3.41608858   3.34765863  -0.06148998
C    4.60730839   2.66546893   0.00946000
N    4.25788832   1.34476960   0.04424999
H    1.03829956   0.17101994  -0.03717999
H    3.26525879   4.41898870  -0.10647996
H    5.63676786   2.99345899   0.03722999
H    4.87536812   0.54453981   0.09735997

