%chk=mol_2077.chk
# wB97XD/Def2SVP opt freq pop=full gfinput

C 5 H 12 N 2

1 2
N    3.23622870   0.99125963   2.53167915
C    2.80806899   1.81155932   1.39635944
C    3.33550858   1.28146946   0.05380998
C    4.84912825   1.30475950  -0.09031996
C    5.54116774   0.16394994  -0.26258990
C    5.54133797   2.64071918  -0.03805999
N    5.06370783   3.51671863  -1.09769952
H    2.97839880   1.45839953   3.39977860
H    4.25385857   0.92297959   2.52909899
H    3.12679887   2.84788895   1.55548942
H    1.71269929   1.81504929   1.37095952
H    2.89242887   1.87397921  -0.75494969
H    2.95697904   0.26079991  -0.09103997
H    5.04212809  -0.79947966  -0.29835990
H    6.62181759   0.16062993  -0.37204987
H    6.62704754   2.52501917  -0.13799995
H    5.36732817   3.11415887   0.93386966
H    5.26755810   3.07621884  -1.99471927
H    5.60483789   4.37993813  -1.08179963

