%chk=mol_4378.chk
# wB97XD/Def2SVP opt freq pop=full gfinput

C 4 H 8 N 2 O 1

1 2
C    0.65655977   0.14795993  -0.18884994
C    2.05076933   0.14586994   0.35229987
C    3.02978897   0.92418969  -0.13210995
C    4.42042828   0.92613965   0.41434985
N    5.28698778   1.79283941  -0.03792999
N    4.84368849   0.04130998   1.38684940
O    6.24275780  -0.05094998   1.45851946
H    0.41048986  -0.84062970  -0.58853978
H    0.52256984   0.88393968  -0.98812962
H   -0.05246998   0.38235986   0.61119974
H    2.22329903  -0.52429980   1.18923950
H    2.83682895   1.60528934  -0.95429969
H    4.85943842   2.39707899  -0.74648976
H    4.38061857  -0.86115968   1.42533946
H    6.52320766   0.79279971   1.03060961

