%chk=mol_5341.chk
# wB97XD/Def2SVP opt freq pop=full gfinput

C 5 H 11 N 1 O 1

1 2
C    1.03984964   0.50680977   0.95110965
O    2.45809913   0.53849977   0.87117970
C    2.90641880   1.50969946  -0.06973998
C    4.40008831   1.46163940  -0.08126997
C    5.19547796   2.51822925   0.15528995
C    6.68708706   2.46505928   0.15797994
N    7.20135689   3.40505862  -0.82630968
H    0.75367975  -0.24049990   1.69584942
H    0.60898978   0.22169992  -0.01349999
H    0.65016979   1.47977936   1.26542950
H    2.53728890   2.50149918   0.21477993
H    2.52780914   1.25920963  -1.06691968
H    4.83819818   0.48954982  -0.29416990
H    4.75333786   3.48655868   0.38110983
H    7.05806732   1.45866954  -0.06371997
H    7.05430746   2.74255896   1.15129960
H    6.91179752   3.09534883  -1.75318944
H    8.21882725   3.36091876  -0.82211965

