%chk=mol_0175.chk
# wB97XD/Def2SVP opt pop=full gfinput

C 4 H 11 N 1

1 2
C    1.844637  -0.155865   0.188538
C    4.712164   0.039987   0.376981
N    5.642855   2.653591   0.158605
C    4.903102   4.205566   2.326744
C    8.401344   2.656180  -0.091897
H    1.281064  -2.145463   0.100779
H    1.143190   0.775071  -1.521532
H    0.903270   0.681190   1.827082
H    5.495891  -1.086196  -1.178584
H    5.358715  -0.838471   2.141665
H    2.848894   4.422734   2.428109
H    5.668007   6.120936   2.141740
H    5.572028   3.412997   4.119187
H    8.982000   1.594437  -1.771316
H    9.335909   1.829538   1.560725
H    9.106912   4.586176  -0.344856

