%chk=mol_3164.chk
# wB97XD/Def2SVP opt pop=full gfinput

C 7 H 8

1 2
C    1.889726   0.000000   0.000000
C    4.618491   0.000000   0.000000
C    6.867567   0.000000   0.000000
C    9.524522   0.000000   0.000000
C   10.743604  -2.139038  -0.609909
C   10.939719   2.265441   0.645890
C    9.961899   4.514215   1.287149
H    1.145458   1.929259   0.024907
H    1.145136  -0.985965   1.658291
H    1.145098  -0.942954  -1.683103
H    9.716461  -3.848238  -1.097232
H   12.790063  -2.255332  -0.643093
H   12.990808   2.103662   0.599686
H    7.940403   4.849831   1.382921
H   11.192904   6.092458   1.737093

