%chk=mol_4997.chk
# wB97XD/Def2SVP opt freq pop=full gfinput

C 4 H 6 N 2 O 1

1 2
C    0.97980958   0.01270000  -0.00844000
N    2.41894913  -0.04587998  -0.00164000
C    3.24755883   1.04186964   0.00457000
N    4.51195860   0.68779975   0.01085000
C    4.49692822  -0.68403977   0.00843000
C    3.20727873  -1.17031956   0.00035000
O    2.75441909  -2.41996908  -0.00469000
H    0.65221971   1.05539966  -0.00012000
H    0.60811979  -0.49808979   0.88342965
H    0.61762977  -0.48123983  -0.91352963
H    2.88382888   2.06130910   0.00430000
H    5.41352797  -1.25868952   0.01235000
H    1.78522933  -2.42808914  -0.01195000

