%chk=mol_6195.chk
# wB97XD/Def2SVP opt freq pop=full gfinput

C 5 H 7 N 1 O 1

1 2
O    1.00071955  -0.00841000  -0.03306999
C    2.41999912   0.00000000   0.00000000
C    2.90201902   1.36116946   0.00000000
C    3.29929876   2.48306894   0.00000000
C    3.88872862   3.78667855   0.04717998
C    3.79503846   4.67712831  -1.16348958
N    3.02196884   4.96010780   0.03902999
H    0.72586972  -0.93911970  -0.01640999
H    2.78745914  -0.54581976  -0.87440968
H    2.74654913  -0.53061980   0.89968961
H    4.78663826   3.87185836   0.65377975
H    3.22699881   4.33926868  -2.01896930
H    4.62356806   5.33826828  -1.38128948
H    3.44428873   5.71181774   0.58586979

