%chk=mol_4819.chk
# wB97XD/Def2SVP opt pop=full gfinput

C 5 H 9 N 1 O 1

1 2
C    1.531151   0.524758  -0.094845
C    4.321237   0.116445   0.304851
O    5.105152  -2.033232   0.794195
C    6.102342   2.407738   0.106240
C    5.063502   5.119344   0.350506
N    7.337844   5.800590   1.821526
C    7.648666   3.097904   2.477941
H    1.225639   1.584875  -1.841179
H    0.738581   1.543736   1.516505
H    0.578011  -1.301303  -0.268152
H    7.321479   2.214646  -1.569644
H    3.313219   5.316915   1.439990
H    4.847318   6.151607  -1.428198
H    8.780707   6.485011   0.738070
H    9.606253   2.433533   2.492738
H    6.761270   2.583671   4.278548

