%chk=mol_6001.chk
# wB97XD/Def2SVP opt freq pop=full gfinput

C 4 H 7 N 1 O 2

1 2
O    1.00009966   0.05688998  -0.00211000
C    2.40942931   0.02385999  -0.01907999
C    2.99293900   1.15742958   0.82061970
C    4.35208845   0.62697977   1.23769951
N    4.14599848  -0.78616971   1.34860957
C    3.03977895  -1.20523953   0.63750976
O    2.64092898  -2.35450912   0.54562974
H    0.70850974  -0.84205967  -0.24793991
H    2.76253915   0.07744998  -1.05491960
H    2.36378908   1.33956957   1.70151937
H    3.05778885   2.10038924   0.26936990
H    5.11277771   0.80241972   0.47047985
H    4.69115829   1.03325963   2.19380903
H    4.74455833  -1.44537950   1.83151937

