%chk=mol_2909.chk
# wB97XD/Def2SVP opt pop=full gfinput

C 7 H 14

1 2
C    1.779480   0.059507  -0.020598
C    4.665564  -0.333367   0.013285
C    5.358885  -1.855711   2.392658
C    5.420396  -1.852121  -2.349667
C    5.952297   2.304672   0.021656
C    8.797412   2.280106   0.046922
C   10.239160   3.165424  -1.833148
H    1.187825   1.112746  -1.702057
H    1.150824   1.119474   1.643117
H    0.775033  -1.751171  -0.028856
H    4.908224  -0.795631   4.112706
H    7.372899  -2.326423   2.443454
H    4.311845  -3.641181   2.463504
H    4.983548  -0.803285  -4.080316
H    4.400719  -3.652803  -2.432890
H    7.442724  -2.289913  -2.364652
H    5.326344   3.367171   1.690511
H    5.284165   3.387485  -1.618815
H    9.713702   1.529223   1.727777
H    9.422515   3.951493  -3.542594
H   12.287623   3.115988  -1.697824

