%chk=mol_2656.chk
# wB97XD/Def2SVP opt freq pop=full gfinput

C 6 H 8 O 1

1 2
C    0.75991970   0.58392978   0.72478974
C    1.74607933   0.71353978  -0.17279993
C    3.10822892   1.18047953   0.10422996
O    3.93123865   1.76172936  -0.91824967
C    3.38803864   2.67060900   0.05070998
C    4.19897842   3.26561880   1.11869955
C    5.38165808   3.87419868   0.95529968
H   -0.22037990   0.22707991   0.42470986
H    0.91041964   0.82792974   1.77099931
H    1.53860939   0.45035982  -1.20835948
H    3.63495874   0.58350980   0.84315968
H    2.59722900   3.32452869  -0.30388990
H    3.78504872   3.20731878   2.12327933
H    5.83590794   3.95772862  -0.02700999
H    5.91752768   4.29289865   1.80037940

