%chk=mol_5488.chk
# wB97XD/Def2SVP opt freq pop=full gfinput

C 4 H 8 N 2 O 1

1 2
N    0.96076965   0.03894999  -0.25317991
C    2.40121913  -0.00766000  -0.01096000
C    3.26234865  -0.80239969  -0.94547963
C    3.33287883   0.70423973  -0.96106964
C    4.51270866   1.40360940  -0.41838983
N    5.66709757   1.14765966  -0.93488967
O    6.63598776   1.91561937  -0.27798989
H    0.52700979   0.80860972   0.25618991
H    0.51020980  -0.81160969   0.08507997
H    2.68410897  -0.03868998   1.03976965
H    2.79983902  -1.28783941  -1.79694927
H    4.10057878  -1.34981942  -0.52948976
H    2.88780880   1.19756961  -1.81922925
H    4.36045837   2.12449932   0.40356985
H    7.45434761   1.65748942  -0.74226975

