%chk=mol_5205.chk
# wB97XD/Def2SVP opt pop=full gfinput

C 4 H 10 N 2 O 1

1 2
C    1.638015   1.460985   0.186119
N    4.350433   1.295880   0.348031
C    5.848532   3.391284  -0.059507
O    4.996606   5.512709  -0.433182
C    8.646215   2.795037   0.053479
C   10.240388   5.110802  -0.569828
N   12.937027   4.503935  -0.432161
H    0.823467  -0.262766   0.977518
H    1.100577   1.645214  -1.800115
H    0.964724   3.108203   1.235975
H    5.165264  -0.434297   0.351243
H    9.048708   1.270198  -1.291193
H    9.081854   2.113281   1.961479
H    9.822778   6.661001   0.738562
H    9.800914   5.781825  -2.479056
H   13.414165   4.111704   1.393163
H   13.949769   6.073410  -0.911585

