%chk=mol_5069.chk
# wB97XD/Def2SVP opt pop=full gfinput

C 5 H 9 N 1 O 1

1 2
C    3.214859  -0.701655   2.873839
N    5.793617   0.186762   2.527962
C    5.892922   2.721243   1.394221
C    5.515166   4.721689   3.371347
C    4.058111   6.771531   3.084071
C    8.506527   3.133884   0.209230
O    9.922499   1.420299  -0.474888
H    3.251557  -2.620805   3.640047
H    2.177286  -0.755116   1.085950
H    2.182275   0.478875   4.222121
H    6.752029  -1.023022   1.358883
H    4.532452   2.911463  -0.159550
H    6.496727   4.441745   5.158782
H    3.028513   7.143429   1.349869
H    3.860767   8.134912   4.609666
H    8.983815   5.118191  -0.228373

