%chk=mol_5235.chk
# wB97XD/Def2SVP opt freq pop=full gfinput

C 4 H 10 N 2 O 1

1 2
C    2.12746930  -1.05990970  -0.34665987
N    3.51873875  -0.64323974  -0.22053991
N    3.72148871   0.69235975  -0.15251994
C    4.95154810   1.09162962   0.01112000
C    6.15067768   0.18548992   0.15887994
C    5.19803810   2.59065914   0.08409997
O    5.15190792   3.01783895   1.43553936
H    2.06505919  -2.15275908  -0.33515987
H    1.69477940  -0.69944978  -1.28576946
H    1.52988946  -0.68002975   0.48751983
H    4.05905867  -1.07279956  -0.97503966
H    5.92586803  -0.65191978   0.82582968
H    6.99365711   0.73959970   0.58192974
H    6.43687773  -0.19432992  -0.82520974
H    4.43577814   3.12930894  -0.48669982
H    6.18068790   2.82864881  -0.33162987
H    4.25970840   2.78715897   1.75708926

