%chk=mol_4075.chk
# wB97XD/Def2SVP opt freq pop=full gfinput

C 4 H 5 N 1 O 2

1 2
C    0.93966961   0.01876999  -0.00806000
C    2.41253924   0.04440998  -0.00038000
C    3.28661871   1.04662967   0.00274000
O    4.61828852   0.70504975   0.01055000
N    4.55760813  -0.70455974   0.01966999
C    3.26294875  -1.14703965   0.00433000
O    2.87295890  -2.29867935  -0.00504000
H    0.52444983   1.03174961  -0.00469000
H    0.55902982  -0.50405979   0.87489969
H    0.56808978  -0.49473983  -0.90026969
H    3.09367895   2.10575914   0.00038000
H    5.39540815  -1.26491964   0.00661000

