%chk=mol_7078.chk
# wB97XD/Def2SVP opt freq pop=full gfinput

C 6 H 3 N 1

1 2
C    0.99999964   0.00000000   0.00000000
C    2.19015908   0.00000000   0.00000000
C    3.63415861   0.00000000   0.00000000
C    4.13407850  -0.70737970  -1.15534949
C    4.54612827  -1.29040945  -2.10759926
C    4.11617851   1.36116946   0.00000000
N    4.50038815   2.44615912   0.00000000
H   -0.06564997   0.00376000  -0.00482000
H    3.99064851  -0.50293982   0.90714967
H    4.91333818  -1.80863929  -2.96478891

