%chk=mol_5667.chk
# wB97XD/Def2SVP opt freq pop=full gfinput

C 4 H 10 N 2 O 1

1 2
N    1.92543936  -0.62507981  -1.27157950
C    2.21245909  -0.03559999   0.04329998
C    3.02913880   1.23833954  -0.09117997
N    4.25317812   1.09109950  -0.92152965
C    2.30712914   2.54781914  -0.47672984
O    3.01996899   3.27592874   0.56625980
C    3.38306880   2.01260924   1.19540954
H    1.37804949  -1.47531939  -1.13642955
H    2.81434894  -0.93840969  -1.66630936
H    2.75482917  -0.77235967   0.64705974
H    1.26527953   0.16608994   0.55532980
H    4.81157827   1.94796932  -0.94621962
H    4.02061844   0.90453964  -1.89813936
H    1.22763956   2.57183886  -0.29270989
H    2.51124907   2.95484877  -1.47176945
H    4.43014812   1.99919927   1.51347935
H    2.74195886   1.81620932   2.06183934

