%chk=mol_3288.chk
# wB97XD/Def2SVP opt pop=full gfinput

C 5 H 8 O 2

1 2
C    1.731518   0.000813   0.230717
C    4.603713   0.000756  -0.050172
O    5.213037  -1.293045  -2.352860
C    5.720938   2.707637   0.000000
O    4.857012   4.046225   2.175944
C    8.449627   2.687587   0.000246
C   10.698647   2.671071   0.000435
H    1.141829   0.791852   2.045572
H    0.995432  -1.928484   0.089327
H    0.844367   1.088974  -1.288623
H    5.399968  -1.115827   1.504940
H    4.515481  -0.322652  -3.749481
H    5.048725   3.742943  -1.663469
H    5.804350   3.397085   3.612117
H   12.712641   2.652268  -0.009581

