%chk=mol_4183.chk
# wB97XD/Def2SVP opt pop=full gfinput

C 6 H 11 N 1

1 2
C    2.962108   2.726421  -1.170364
C    0.389284   2.147730  -0.125213
C    2.239477   0.039628  -0.596964
N    3.331946  -1.262035   1.586803
C    5.911026  -2.097785   1.017939
C    8.093149  -0.676087   2.153494
C    7.454044  -3.272703   3.095825
H    3.102779   3.274158  -3.137285
H    4.309577   3.653653   0.061473
H   -1.218306   2.309113  -1.381239
H    0.006690   2.696205   1.809847
H    1.839894  -1.167492  -2.212283
H    2.230670  -2.762062   2.091076
H    6.191366  -2.905889  -0.852796
H    7.681245   0.913135   3.378301
H    9.778577  -0.446523   1.015728
H    8.712941  -4.809013   2.598789
H    6.626154  -3.433047   4.962175

