%chk=mol_6808.chk
# wB97XD/Def2SVP opt freq pop=full gfinput

C 7 H 10

1 2
C   -1.45577943   0.66228974   0.24128991
C   -1.42231941  -0.78659970  -0.23032992
C   -0.27784991  -1.57308936   0.32748985
C    0.99389964  -1.17436945   0.45862982
C    1.59103942   0.05307998  -0.00067000
C    1.00444961   1.19334960  -0.39087987
C   -0.44587985   1.56327951  -0.46105984
H   -2.45797896   1.06615961   0.04808998
H   -1.31015956   0.71260971   1.32810950
H   -1.42584956  -0.85388970  -1.32470942
H   -2.34715915  -1.26814950   0.11152996
H   -0.53041983  -2.57059908   0.68419975
H    1.69867945  -1.87458920   0.90655965
H    2.68033910   0.01952999  -0.03586999
H    1.67116940   1.98918927  -0.72458971
H   -0.54982984   2.56946898  -0.03381999
H   -0.71971971   1.65351939  -1.51989949

