%chk=mol_3925.chk
# wB97XD/Def2SVP opt freq pop=full gfinput

C 5 H 7 N 1 O 1

1 2
C    0.99293959  -0.04638998  -0.00691000
C    2.46026921   0.10701995   0.00049000
C    3.30268860   1.20007956   0.00261000
C    4.61182833   0.68033975   0.01022000
N    5.74887800   1.38894951   0.01456999
C    4.49844837  -0.68740970   0.01205999
O    3.18664885  -1.04783964   0.00623000
H    0.49599981   0.92860961   0.00144000
H    0.66157979  -0.60516977   0.87364966
H    0.66894972  -0.58643979  -0.90176964
H    2.99816871   2.23626924  -0.00110000
H    5.76207781   2.40354919   0.02289999
H    6.66652727   0.95570964   0.02997999
H    5.20553780  -1.50345945   0.01688999

