%chk=mol_2284.chk
# wB97XD/Def2SVP opt freq pop=full gfinput

C 6 H 8 O 1

1 2
C    0.85457969   0.00256000  -0.00529000
C    2.33765912   0.02591999  -0.01708999
C    3.14663863   1.10124958   0.00440000
C    4.57530832   0.75275975  -0.04384999
O    5.13202810  -0.03986998  -1.10517967
C    4.60590839  -0.76189971   0.00879000
C    3.17300892  -1.23836958  -0.07014997
H    0.48101979  -1.02580965   0.01049000
H    0.45431980   0.49061981  -0.89860964
H    0.46698982   0.51169980   0.88183963
H    2.80605888   2.12790918   0.02980999
H    5.24686813   1.30848944   0.59737974
H    5.26146793  -1.27965951   0.68825978
H    2.94251895  -1.88174927   0.78492969
H    2.99584889  -1.79047930  -0.99803966

