%chk=mol_2259.chk
# wB97XD/Def2SVP opt pop=full gfinput

C 6 H 8 O 1

1 2
C    1.708199  -0.337316  -0.002853
C    4.482052   0.290791   0.322236
C    6.617424  -1.304988  -1.068546
O    8.245046   1.000232  -0.434165
C    5.861439   2.252043  -1.491674
C    5.601054   1.302966  -4.123269
C    6.124451  -1.157079  -3.830210
H    0.535624   1.231497   0.662689
H    1.217456  -2.009459   1.112482
H    1.189299  -0.719948  -1.966109
H    4.874794   0.617392   2.338007
H    7.308327  -3.054383  -0.231643
H    5.751740   4.270970  -1.103128
H    5.148823   2.345075  -5.810492
H    6.209602  -2.641988  -5.217118

