%chk=mol_2615.chk
# wB97XD/Def2SVP opt pop=full gfinput

C 6 H 6 O 1

1 2
C    4.987989  -2.235565   0.714978
C    4.169719   0.125175   0.306287
C    5.717140   2.320848   0.138574
C    4.814625   4.726715  -0.283402
O    6.746492   6.418039  -0.344724
C    8.906733   5.088390   0.040837
C    8.378366   2.560673   0.348787
H    3.656280  -3.792945   0.812431
H    6.971786  -2.686831   0.961285
H    2.141098   0.393422   0.081768
H    2.952338   5.518019  -0.565727
H   10.629709   6.185830   0.044087
H    9.755654   1.091147   0.682248

