%chk=mol_3712.chk
# wB97XD/Def2SVP opt pop=full gfinput

C 6 H 4 O 1

1 2
O    1.854332  -0.081825   0.000019
C    4.163955  -0.051873   0.000000
C    5.538013   2.300987   0.000000
C    6.662551   4.248747   0.000000
C    8.026933   6.611925   0.000000
C    6.886993   9.091189   0.000000
C    5.947460  11.134606   0.000000
H    5.328782  -1.776229  -0.000000
H    9.309282   6.552361  -1.634386
H    9.309282   6.552361   1.634386
H    5.094947  12.959572   0.000000

