%chk=mol_3172.chk
# wB97XD/Def2SVP opt freq pop=full gfinput

C 6 H 6 O 1

1 2
C    0.87182969   2.24640918   0.09081997
C    2.16562939   2.18595910  -0.22773992
O    2.95309877   1.12361968   0.13904995
C    4.33753872   1.16826952   0.00000000
C    5.00911808   0.01302000  -0.07390997
C    5.04053783   2.38589907   0.00000000
C    5.63561773   3.41660857   0.00000000
H    0.26001990   3.08516884  -0.22166993
H    0.40343985   1.45879948   0.67175972
H    2.65506887   2.94964910  -0.81601965
H    4.47925854  -0.93314964  -0.05122998
H    6.08984804  -0.01713999  -0.16064994
H    6.16858816   4.33868837   0.00344000

