%chk=mol_3124.chk
# wB97XD/Def2SVP opt pop=full gfinput

C 5 H 12 O 2

1 2
C    1.941694  -0.259629   0.016516
C    4.820559  -0.249538   0.047319
C    5.909268   2.438389   0.149345
O    5.082645   3.665596   2.415448
C    8.823207   2.427240   0.072377
C    9.917888   5.084554  -0.158019
O    9.790275   1.286563   2.329050
H    1.238867  -2.199377  -0.128709
H    1.215793   0.808387  -1.598500
H    1.168267   0.567182   1.746372
H    5.514485  -1.220574  -1.646707
H    5.448666  -1.343614   1.692325
H    5.184369   3.531936  -1.452595
H    5.306634   2.456908   3.784989
H    9.478696   1.291250  -1.529960
H    9.387365   6.265519   1.456393
H    9.276042   6.008233  -1.892391
H   11.985985   5.006716  -0.178485
H    9.590115   2.527055   3.674062

