%chk=mol_6452.chk
# wB97XD/Def2SVP opt freq pop=full gfinput

C 6 H 13 N 1

1 2
C    0.99073964  -0.01885999   0.03443999
C    2.50681901  -0.00031000   0.01849999
C    3.19221878   1.05771959   0.92472965
C    4.23466873  -0.00740000   1.33028948
N    5.37955809   0.08494997   0.42478985
C    3.22666883  -1.09626961   0.86374968
C    3.68526864  -2.33949924   0.12100995
H    0.61163974  -0.88589966  -0.51528978
H    0.59047973   0.88236970  -0.44078985
H    0.59727979  -0.06647997   1.05493963
H    2.87338901   0.04872998  -1.01667964
H    2.57127905   1.38428938   1.76921940
H    3.56022859   1.95241928   0.41340986
H    4.50288820  -0.02705999   2.39001918
H    5.14955807   0.15111995  -0.56476980
H    6.03354788  -0.69085974   0.51194984
H    2.60804892  -1.41928947   1.71725929
H    4.24122810  -2.09589911  -0.78925967
H    2.82312894  -2.94748878  -0.17143993
H    4.32692862  -2.95387888   0.76035970

