%chk=mol_5495.chk
# wB97XD/Def2SVP opt freq pop=full gfinput

C 5 H 9 N 1 O 1

1 2
N    0.38975987   1.08046961  -0.77496976
C    1.05017960  -0.17857993  -0.42136982
C    1.67375946  -0.99512964  -1.51259947
C    2.55222893  -0.29068992  -0.51451981
O    3.16541862  -1.11320961   0.50003982
C    4.39952850  -1.57392931   0.11947995
C    5.15366840  -2.31290913   0.93317968
H    0.37653989   1.70991933   0.02834999
H   -0.58786976   0.91429967  -1.01466966
H    0.57504976  -0.72889972   0.38832986
H    1.65723944  -0.60781980  -2.52389908
H    1.59185934  -2.07308912  -1.44717944
H    3.08323908   0.60018981  -0.83842969
H    4.70966816  -1.30082953  -0.88046968
H    4.81093836  -2.56937885   1.92953932
H    6.12725735  -2.67254901   0.61768979

