%chk=mol_0165.chk
# wB97XD/Def2SVP opt pop=full gfinput

C 4 H 7 N 1

1 2
C    1.889726   0.000000   0.000000
C    4.618491   0.000000   0.000000
C    6.867567   0.000000   0.000000
C    9.596332   0.000000   0.000000
N   10.544218   2.582160   0.034488
H    1.145155   1.929184   0.022053
H    1.145023  -0.983621   1.659671
H    1.145042  -0.945430  -1.681724
H   10.317904  -0.971395  -1.679060
H   10.321911  -1.007867   1.654436
H    9.853373   3.514173  -1.501387
H   12.456451   2.551206  -0.160003

