%chk=mol_4247.chk
# wB97XD/Def2SVP opt freq pop=full gfinput

C 4 H 6 N 2 O 1

1 2
C    0.96484965  -0.14727993  -0.01157000
C    2.47136903   0.05216998   0.02285999
C    2.83096910   1.48329937   0.00587000
C    3.12352896   2.42597914   0.95148963
N    3.38416862   3.60633850   0.32159987
N    3.26421881   3.43101883  -0.99105960
O    2.91593885   2.09554911  -1.20629954
H    0.72301972  -1.21458960   0.00292000
H    0.52798980   0.28813991  -0.91665965
H    0.48310980   0.32227987   0.85281968
H    2.92689872  -0.45554984  -0.83533967
H    2.87933898  -0.42006984   0.92412961
H    3.16075897   2.32830930   2.02478909

