%chk=mol_2996.chk
# wB97XD/Def2SVP opt freq pop=full gfinput

C 5 H 10 O 2

1 2
C    1.44236934   0.08032997   1.04835963
C    2.65031910   0.64817977   0.30763987
C    2.24767900   1.15559959  -1.08579957
C    3.44130874   1.43995953  -1.99724925
O    4.36844826   2.34248900  -1.41869950
C    3.23936868   1.74510944   1.17368960
O    3.08922887   2.94471884   0.95596969
H    1.72551942  -0.27728990   2.04491925
H    1.00428963  -0.75991970   0.49962980
H    0.66579974   0.84261966   1.18269956
H    3.41121864  -0.13431995   0.20565993
H    1.64899945   2.07074928  -0.98693961
H    1.61285937   0.41238984  -1.58282948
H    3.09656882   1.86335921  -2.94617891
H    3.97720861   0.51247978  -2.22181916
H    3.86584878   3.04271889  -0.95264959
H    3.80406857   1.40060949   2.05739927

