%chk=mol_2164.chk
# wB97XD/Def2SVP opt freq pop=full gfinput

C 7 H 10

1 2
C    1.00098956  -0.05393998   0.00279000
C    2.51999903   0.00000000   0.00000000
C    3.00201893   1.36116946   0.00000000
C    3.39929867   2.48306894   0.00000000
C    4.05201864   3.75862861   0.03806999
C    3.89314866   4.69297838  -1.13151956
C    3.24370885   5.01486826   0.18332994
H    0.65744972  -1.09329963   0.00236000
H    0.58524978   0.44194984  -0.88127965
H    0.58858979   0.44009984   0.88944966
H    2.89573884  -0.53278983  -0.88074964
H    2.89905882  -0.53404975   0.87854970
H    5.02582788   3.75462866   0.52017981
H    3.25441861   4.39688826  -1.95376933
H    4.76158810   5.27027798  -1.43021953
H    3.66681862   5.81829786   0.77803975
H    2.16286922   4.93687820   0.25165990

