%chk=mol_0368.chk
# wB97XD/Def2SVP opt pop=full gfinput

C 5 H 13 N 1

1 2
C    2.187415  -0.558660  -0.011471
C    5.062727  -0.570376   0.012000
C    6.128590   2.121917   0.058733
C    9.032191   2.198621  -0.024340
C    9.971121   4.923114  -0.194094
N   10.115420   0.982355   2.209978
H    1.465199  -2.495478  -0.048547
H    1.463857   0.428703  -1.678077
H    1.438119   0.374789   1.674581
H    5.750758  -1.566942  -1.668515
H    5.710337  -1.633158   1.666757
H    5.439804   3.106483   1.750623
H    5.382185   3.162268  -1.573102
H    9.685055   1.173085  -1.701585
H    9.369640   6.040623   1.444110
H    9.235205   5.845603  -1.895868
H   12.038973   4.994206  -0.291282
H    9.551243   1.915124   3.798576
H   12.035609   1.126485   2.161166

