%chk=mol_2970.chk
# wB97XD/Def2SVP opt pop=full gfinput

C 5 H 8 O 2

1 2
C    1.207743  -0.262332   0.517388
C    3.820800   0.187045  -0.453648
C    4.947379   2.429130  -0.831479
C    3.852717   4.960852  -0.162498
O    7.466062   2.431284  -1.734750
C    7.893632   3.782665  -3.894083
O    6.379092   4.963725  -5.172067
H    0.185873  -1.496361  -0.791474
H    0.105012   1.471662   0.722159
H    1.293007  -1.203926   2.356394
H    4.873094  -1.516203  -0.927251
H    2.552264   4.841251   1.440141
H    2.835043   5.767841  -1.770503
H    5.352423   6.274704   0.392817
H    9.919702   3.632715  -4.349092

