%chk=mol_6081.chk
# wB97XD/Def2SVP opt freq pop=full gfinput

C 4 H 8 N 2 O 1

1 2
O    1.51077938   0.05286998   1.03331959
C    2.46983910   0.01759999   0.27276990
N    3.00713897  -1.15760958  -0.14661995
C    4.00424862  -1.26718950  -1.18327951
C    4.93057823  -0.06605998  -1.17581952
C    4.07059860   1.18305957  -1.21281946
N    3.06827879   1.15171957  -0.17491995
H    2.49624896  -1.97662926   0.15559995
H    4.56193829  -2.19363928  -1.01817966
H    3.47672868  -1.34956956  -2.13932920
H    5.53459787  -0.07119998  -0.25918990
H    5.61704779  -0.09472997  -2.02809930
H    4.67753839   2.08187938  -1.06893957
H    3.54820871   1.27126944  -2.17148924
H    2.60233903   2.00492930   0.10621995

