%chk=mol_2039.chk
# wB97XD/Def2SVP opt freq pop=full gfinput

C 5 H 8 N 2

1 2
N    1.18762946   0.23148991   0.05162998
C    2.60286903  -0.10218996  -0.03105999
C    2.88465881  -0.79958969  -1.29218948
C    3.10857892  -1.37973952  -2.31981897
C    3.39841866   1.17100954  -0.10634996
C    3.65107870   1.98269916   1.14400959
N    4.73573780   1.25572956   0.50016981
H    1.00375962   0.62926978   0.96937960
H    0.65530980  -0.63547975   0.00652000
H    2.89491892  -0.71841973   0.82669967
H    3.30773878  -1.89101934  -3.23338866
H    3.23885870   1.72714937  -1.02565956
H    3.32316875   1.59228933   2.09904933
H    3.66940856   3.06229877   1.06240964
H    5.32833815   1.87901926  -0.05170998

