%chk=mol_2556.chk
# wB97XD/Def2SVP opt pop=full gfinput

C 6 H 8 O 1

1 2
C    1.736658  -0.007502   0.153918
C    4.611272  -0.004025   0.151783
O    5.519248  -0.004309   2.667651
C    5.728384   2.199093  -1.250923
C    7.195151   1.363135  -3.145317
C    7.197098  -1.362927  -3.145336
C    5.733316  -2.202892  -1.253531
H    0.952063  -0.004441  -1.762056
H    1.000440   1.648427   1.157816
H    1.004786  -1.669781   1.150522
H    7.353283  -0.001493   2.552963
H    5.381354   4.154544  -0.782271
H    8.236163   2.514658  -4.469807
H    8.239640  -2.511446  -4.469996
H    5.390104  -4.158361  -0.786126

