%chk=mol_6833.chk
# wB97XD/Def2SVP opt freq pop=full gfinput

C 5 H 12 N 2

1 2
C    1.00295961  -0.10865996  -0.04675998
C    2.49215913  -0.11821996  -0.05316998
N    3.21903896  -0.59448981  -1.22520959
C    3.26000881   0.83967972  -0.93380970
C    4.54847860   1.44764948  -0.46368983
C    4.29784822   2.52456903   0.59492981
N    5.54216814   3.17407870   0.99504966
H    0.63735974   0.65885979   0.64265978
H    0.62028980  -1.07745957   0.28868988
H    0.58364975   0.09934996  -1.03693962
H    2.91045880  -0.39262983   0.90810966
H    2.58948898  -0.78918970  -2.00540924
H    2.71463895   1.48762941  -1.61024940
H    5.06090832   1.88702929  -1.32900941
H    5.21673775   0.67782974  -0.05662998
H    3.82495856   2.07787919   1.47702944
H    3.60752869   3.28157854   0.20686992
H    6.19541788   2.47462916   1.34733951
H    5.35837793   3.80874872   1.77090931

