%chk=mol_5222.chk
# wB97XD/Def2SVP opt freq pop=full gfinput

C 4 H 6 N 2 O 1

1 2
C    1.38062954  -0.17365994   0.12713996
N    2.63494897   0.12652995   0.12977995
N    2.91453886   1.32459950  -0.45628983
C    2.63330913   2.60420895   0.22886992
C    3.93999839   3.13345885  -0.38301986
C    4.23208809   1.65694940  -0.68694973
O    5.21867800   1.01589966  -0.96807963
H    1.04693961  -1.12077963   0.57930982
H    0.60080975   0.46811983  -0.31752989
H    2.62593913   2.52011919   1.32026947
H    1.72056937   3.08841872  -0.12661995
H    3.83033848   3.75035858  -1.27896953
H    4.63093805   3.59867859   0.32271990

