%chk=mol_3039.chk
# wB97XD/Def2SVP opt pop=full gfinput

C 5 H 8 O 2

1 2
C    1.773206   0.097434  -0.116615
C    4.639448  -0.020107  -0.101176
C    5.828652   2.578739   0.009619
O    4.651542   4.569755  -0.074455
C    8.625674   2.617157   0.099948
C    9.957836   3.953005   2.233278
O    9.736228   1.253984   2.168177
H    0.974759  -1.807958  -0.210686
H    1.079733   1.169722  -1.744746
H    1.060344   1.014367   1.595552
H    5.306105  -0.963175  -1.819353
H    5.269785  -1.112595   1.537954
H    9.571255   2.554003  -1.711903
H    8.831635   4.975517   3.601894
H   11.798468   4.764038   1.864253

