%chk=mol_2731.chk
# wB97XD/Def2SVP opt pop=full gfinput

C 6 H 10 O 1

1 2
C    1.790799   0.039628  -0.587289
C    4.516540  -0.396672   0.090782
C    5.139148  -3.045653   0.905821
C    6.228084   1.484210  -0.042727
C    8.933681   1.361000   0.548720
C   10.718658   0.323049  -1.415896
O   10.744548   2.937031  -0.723123
H    1.429748   1.992641  -1.168380
H    0.574628  -0.368289   1.036118
H    1.235805  -1.194798  -2.152209
H    4.013760  -3.564572   2.562960
H    7.129899  -3.286819   1.407071
H    4.712731  -4.378590  -0.618375
H    5.587561   3.343398  -0.652050
H    9.340349   0.948227   2.516416
H    9.997199  -0.151858  -3.270889
H   12.277456  -0.840588  -0.783178

