%chk=mol_3999.chk
# wB97XD/Def2SVP opt freq pop=full gfinput

C 4 H 8 N 2 O 1

1 2
C    0.96481961  -0.07398997   0.12580995
C    2.47391891  -0.00234000  -0.05736998
C    3.01991892  -1.17861950  -0.89623964
N    3.59517884  -0.61336982  -2.15182924
C    3.46459889   0.66763973  -1.98873925
N    2.80647898   1.14978957  -0.88867968
O    3.55463862   2.12099910  -0.21836992
H    0.59717977   0.81047970   0.65669972
H    0.68624973  -0.96074963   0.70362973
H    0.44482982  -0.11783995  -0.83795971
H    2.97109890   0.03632998   0.91928965
H    2.24601912  -1.91511929  -1.14228964
H    3.81676841  -1.69434941  -0.35020986
H    3.83775854   1.42453945  -2.69792891
H    2.91074896   2.84566879  -0.09573996

