%chk=mol_3356.chk
# wB97XD/Def2SVP opt freq pop=full gfinput

C 5 H 10 O 2

1 2
C    1.71302938   1.49778938   1.89182925
O    3.04236889   1.66736937   1.41610944
C    3.12985897   1.43736947   0.00906000
C    4.57622814   1.61062944  -0.44461983
C    5.04007816   3.02750874  -0.29447988
C    5.99384737   3.42504859   0.80025971
O    6.44083786   3.21162891  -0.54661977
H    1.69870937   1.72252941   2.96141887
H    1.38557947   0.46409982   1.74649930
H    1.03103960   2.18467927   1.38129938
H    2.47400904   2.13942909  -0.51898980
H    2.80221891   0.41423982  -0.20832993
H    4.65542793   1.32658947  -1.49977946
H    5.22415781   0.93816966   0.13000995
H    4.36107874   3.76418877  -0.70142972
H    6.27119732   2.68891883   1.54498935
H    5.96325779   4.44431877   1.16277957

