%chk=mol_1813.chk
# wB97XD/Def2SVP opt freq pop=full gfinput

C 5 H 10 N 2

1 2
C    1.01603961   0.69706970  -0.14656994
N    2.16104913   0.72553974   0.75650966
C    3.28932881   0.91023970   0.16374995
N    4.51542807   0.97260964   0.79052967
C    5.66826820   0.40988985   0.06705997
C    5.51199770   1.88868928   0.22180992
C    6.38838768   2.65213919   1.15145957
H    0.19472994   0.15684995   0.33442989
H    1.23483956   0.18407993  -1.08989954
H    0.67211980   1.71408939  -0.35949984
H    3.34974861   1.04116964  -0.93396968
H    5.43915796  -0.05590998  -0.88109970
H    6.33830738  -0.12901996   0.72270972
H    5.18142796   2.47884917  -0.62349975
H    6.67614794   2.06104922   2.02722931
H    5.87291765   3.55147862   1.50272942
H    7.30194759   2.96316886   0.63547975

