%chk=mol_6019.chk
# wB97XD/Def2SVP opt pop=full gfinput

C 4 H 5 N 1 O 2

1 2
O    1.754686  -0.309084  -0.248688
C    4.038194   0.012964  -0.055974
C    5.270238   2.518722   0.380043
C    8.045321   2.241612  -0.214578
O    8.988407   0.176141   1.241134
N    8.131983  -2.180120   0.320327
C    5.744843  -2.242765  -0.222459
H    4.398564   3.951606  -0.827417
H    4.991088   3.012280   2.370170
H    9.077186   3.945559   0.339092
H    8.399625   1.904107  -2.228082
H    4.839551  -3.993161  -0.888738

