%chk=mol_0284.chk
# wB97XD/Def2SVP opt freq pop=full gfinput

C 4 H 8 N 2

1 2
C    1.04899955   0.06494997   0.02347999
C    2.56980896  -0.01706999  -0.01877999
C    3.07249880  -1.21928954  -0.84699965
N    3.42770863  -0.68351972  -2.19728923
C    3.43436885   0.60029978  -2.01613927
N    3.11581874   1.08636963  -0.78741968
H    0.72700971   0.97178966   0.54469979
H    0.63116974  -0.79846972   0.55024981
H    0.61644977   0.09204996  -0.98230964
H    2.97693896  -0.03580999   0.99721962
H    2.32136917  -2.01080918  -0.93600965
H    3.97659874  -1.64743936  -0.39875984
H    3.64810872   1.34552944  -2.79856896
H    2.65545893   1.98649931  -0.73530972

