%chk=mol_0962.chk
# wB97XD/Def2SVP opt freq pop=full gfinput

C 4 H 9 N 1 O 1

1 2
C    1.04023957  -0.11033995  -0.06815998
C    2.51029921   0.10909996  -0.03593999
O    3.19919872  -0.31518987  -1.21960962
C    3.16939878   1.09933960  -0.96127963
C    4.49382830   1.70094943  -0.62919974
N    5.21224785   1.96300924  -1.86960924
H    0.54565978   0.55538982   0.64562976
H    0.80686969  -1.14272952   0.20966992
H    0.61742973   0.07931997  -1.06032968
H    2.95762897  -0.11318996   0.92312962
H    2.55340886   1.72587931  -1.59319937
H    5.08730793   1.03421962   0.00619000
H    4.34634829   2.63973904  -0.08626997
H    5.30726767   1.08017957  -2.37441897
H    6.16020727   2.26277900  -1.64958942

