%chk=mol_5390.chk
# wB97XD/Def2SVP opt freq pop=full gfinput

C 4 H 7 N 1 O 2

1 2
C    3.55656886  -1.24224949   0.02728999
O    2.64609909  -0.14985995   0.09227996
C    3.17160892   1.11009955   0.00609000
C    4.45000792   1.48566949  -0.13261995
N    4.80502796   2.80657887  -0.20197994
C    6.08372784   3.27221870  -0.34072986
O    6.36097717   4.46314859  -0.39838985
H    2.97982883  -2.16748929   0.11551996
H    4.26943827  -1.20721948   0.85742968
H    4.07849836  -1.25856960  -0.93490964
H    2.35626912   1.82349932   0.07014997
H    5.26033831   0.76662970  -0.19567993
H    4.09303856   3.52726865  -0.14914995
H    6.84872770   2.48018885  -0.39637986

