%chk=mol_5818.chk
# wB97XD/Def2SVP opt freq pop=full gfinput

C 4 H 8 N 2 O 1

1 2
N    3.88717842   3.20902896  -3.38938880
C    2.93394899   3.35350871  -2.54083896
N    3.01747894   3.13733888  -1.20186961
C    4.15565825   2.47683907  -0.58242977
C    5.30162811   3.45842886  -0.39615986
C    6.46596718   2.81680894   0.30660990
O    6.43388748   1.71193933   0.84011972
H    3.54549885   3.43962860  -4.32882881
H    1.93146932   3.68874860  -2.86029911
H    2.14681935   3.07070899  -0.68663973
H    4.47012854   1.61073947  -1.17803955
H    3.83829856   2.08429933   0.39098984
H    4.98468781   4.32198858   0.19924992
H    5.66276789   3.83093858  -1.35978949
H    7.37835741   3.43581867   0.35939986

