%chk=mol_1905.chk
# wB97XD/Def2SVP opt pop=full gfinput

C 5 H 10 N 2

1 2
N    1.956736   0.071545   0.641713
C    4.681891   0.011603   0.122379
C    5.433851  -2.468020  -1.218552
C    5.102979  -1.913121  -3.980576
N    7.057145  -0.662670  -5.457246
C    5.100409   0.898886  -4.322333
C    5.428711   2.099656  -1.771732
H    1.495926   1.729421   1.507869
H    1.498893  -1.334260   1.878388
H    5.688265   0.230301   1.917052
H    4.278964  -4.076064  -0.613008
H    7.411676  -2.929245  -0.808614
H    3.677483  -3.013962  -4.942900
H    8.720311  -0.543731  -4.490519
H    3.671284   1.735354  -5.519342
H    7.404646   2.650379  -1.485722
H    4.269307   3.803433  -1.569096

