%chk=mol_3944.chk
# wB97XD/Def2SVP opt freq pop=full gfinput

C 5 H 5 N 1 O 1

1 2
C    1.05188966   0.04595998   0.00586000
C    2.54370904  -0.03875999   0.00431000
C    3.24214888  -1.18525958  -0.00036000
C    4.61914825  -0.71265978  -0.00018000
O    5.64684820  -1.34644949  -0.00333000
C    4.50378847   0.77882969   0.00506000
N    3.26724887   1.14283955   0.00751000
H    0.59104979  -0.94701964   0.00046000
H    0.70092976   0.58588976  -0.87862968
H    0.70234972   0.57560980   0.89731967
H    2.91749907  -2.20683932  -0.00355000
H    5.41141796   1.39477944   0.00618000

