%chk=mol_6595.chk
# wB97XD/Def2SVP opt freq pop=full gfinput

C 5 H 7 N 1 S 1

1 2
C    2.94115877  -1.18280959   0.47905982
N    2.38742924   0.08004997   0.03803999
C    3.10479879   1.22951949   0.00808000
C    2.51142907   2.45820904  -0.18137994
S    3.64844871   3.73814869  -0.17676994
C    4.94636774   2.64968896   0.06893998
C    4.51656818   1.34235954   0.14782993
H    2.18340921  -1.96661925   0.38745984
H    3.24772859  -1.13009965   1.52847946
H    3.79762864  -1.47797942  -0.13530995
H    1.37093949   0.12240995   0.06759997
H    1.46313941   2.67657876  -0.32311985
H    5.95949745   3.02021909   0.14197995
H    5.19741774   0.51580977   0.29709989

