%chk=mol_5311.chk
# wB97XD/Def2SVP opt freq pop=full gfinput

C 5 H 11 N 1 O 1

1 2
C    1.17941952   0.34180987  -0.10557996
O    2.58353901   0.34376988   0.11127996
C    3.15928888   1.61067939  -0.21079992
C    4.62564850   1.54716933   0.07353997
C    5.61785793   1.31335950  -1.04337966
N    5.49455833   2.62305880  -0.40888986
C    6.58746719   2.92611885   0.51264983
H    0.78365970  -0.62826979   0.20903993
H    0.95807964   0.48215982  -1.16743958
H    0.69485974   1.12411964   0.48754984
H    2.70278907   2.38588929   0.41470984
H    2.96284890   1.84441924  -1.26475942
H    4.83082819   1.12460947   1.04995954
H    5.25065804   1.24767959  -2.06027913
H    6.49478769   0.71223974  -0.83668971
H    6.23637772   3.62336874   1.28098953
H    7.40093756   3.41454864  -0.03248999
H    7.00528765   2.04914927   1.02265966

