%chk=mol_0416.chk
# wB97XD/Def2SVP opt freq pop=full gfinput

C 4 H 8 N 2

1 2
C    0.76937973   0.11754996  -0.02806999
C    2.23267913  -0.22483991   0.07414997
C    2.62009907  -1.67599940  -0.07417998
N    3.07841897   0.74102974   0.27799991
N    4.39940834   0.31535989   0.35088986
C    5.18637800   1.31654942   0.55750978
H    0.61253977   1.19277954   0.09510996
H    0.21805991  -0.41589984   0.75117970
H    0.39451987  -0.18865994  -1.00861955
H    1.72921932  -2.29529905  -0.20995992
H    3.14551878  -2.01345921   0.82338971
H    3.26651883  -1.79694927  -0.94774967
H    6.27134800   1.15238953   0.64153975
H    4.82724857   2.35492921   0.65773970

