%chk=mol_0312.chk
# wB97XD/Def2SVP opt freq pop=full gfinput

C 5 H 11 N 1

1 2
C    3.03083897  -1.17070961  -0.38646987
C    2.37671900   0.10142996   0.12783995
C    3.36003876   1.22942960   0.19932993
C    3.62389851   2.09417939  -1.01378965
N    2.85673881   2.59822893   0.12118996
C    3.60188866   3.53743887   0.95327961
H    2.30348921  -1.98734927  -0.41983986
H    3.85912848  -1.47545946   0.26129991
H    3.43071890  -1.02552962  -1.39528942
H    1.97073925  -0.08085997   1.12979960
H    1.52866948   0.35666987  -0.51989979
H    4.17903852   1.02372968   0.87929970
H    3.05590892   1.91002929  -1.91778922
H    4.62690830   2.47081923  -1.17306960
H    3.19007874   3.53532887   1.96821928
H    3.49091864   4.55062819   0.55253977
H    4.67564821   3.32292867   1.02747953

