%chk=mol_4135.chk
# wB97XD/Def2SVP opt pop=full gfinput

C 5 H 5 N 1 O 1

1 2
C    1.980830   0.027193   0.008674
C    4.800150  -0.043275   0.004800
N    6.115532  -2.107649   0.006841
C    8.595854  -1.356653   0.003477
O   10.477776  -2.681503   0.002797
C    8.666549   1.424816   0.000586
C    6.294659   2.270279   0.001380
H    1.216851  -1.892258  -0.016611
H    1.309958   1.041541  -1.661561
H    1.314701   0.995546   1.707840
H   10.401072   2.481192  -0.001474
H    5.597860   4.176389   0.000227

