%chk=mol_3555.chk
# wB97XD/Def2SVP opt pop=full gfinput

C 6 H 8 O 1

1 2
O    2.175869   0.022752   0.619131
C    4.823904  -0.062342   0.123777
C    5.444566  -2.374762  -1.523875
C    6.112829  -1.257197  -4.041728
C    6.220997   1.266872  -3.962567
C    5.618874   2.177078  -1.465785
C    5.780653   4.585609  -0.716887
H    1.568870   1.678077   0.104766
H    5.824117  -0.135701   1.932963
H    3.849429  -3.680714  -1.687639
H    7.083752  -3.396065  -0.777528
H    6.512393  -2.383568  -5.698583
H    6.720943   2.470892  -5.534932
H    5.319239   5.126298   1.208045
H    6.393492   6.070159  -1.993245

