%chk=mol_3362.chk
# wB97XD/Def2SVP opt freq pop=full gfinput

C 6 H 10 O 1

1 2
C    3.60312867  -1.22508955   0.10852996
O    2.69815898  -0.18876994   0.47502983
C    3.13105869   1.09892964   0.31384987
C    4.30798864   1.54288948  -0.14916995
C    4.62380838   2.94841886  -0.26522991
C    5.80158758   3.38795877  -0.73329973
C    6.16124773   4.83181810  -0.86808968
H    3.11017895  -2.18464923   0.29108989
H    4.50892830  -1.18820965   0.72248977
H    3.85075855  -1.17007959  -0.95665967
H    2.33730912   1.76950932   0.63304973
H    5.08079815   0.84536964  -0.46057984
H    3.86246848   3.66242862   0.04387999
H    6.56616783   2.67946911  -1.04422963
H    5.35442781   5.49355793  -0.53831977
H    6.38702774   5.06214809  -1.91382933
H    7.05007744   5.05062819  -0.26839989

