%chk=mol_2211.chk
# wB97XD/Def2SVP opt freq pop=full gfinput

C 5 H 10 O 2

1 2
C   -1.42238939   0.72198969   0.16505994
C   -1.45441949  -0.77276975  -0.11989995
O   -0.28234988  -1.45941937   0.30740988
C    0.85285968  -1.17593956  -0.50672978
C    1.65041947   0.02398999   0.00495000
O    0.94103968   1.23294961   0.26190990
C   -0.24829991   1.44228935  -0.48327982
H   -2.36006927   1.16211963  -0.19410992
H   -1.37322950   0.87087965   1.25054955
H   -1.63633931  -0.96888965  -1.18353963
H   -2.29632902  -1.21435964   0.42554983
H    1.50057948  -2.05928922  -0.47796983
H    0.55603981  -1.04397964  -1.55415952
H    2.13344932  -0.24579990   0.94986963
H    2.45043921   0.25320992  -0.70666975
H   -0.44606984   2.51987910  -0.44400984
H   -0.11327995   1.18551946  -1.54055941

