%chk=mol_5471.chk
# wB97XD/Def2SVP opt freq pop=full gfinput

C 4 H 7 N 1 O 2

1 2
C    8.02267742   1.16610956  -2.64153886
O    7.70964718   0.37688985  -1.49658942
N    6.47709751   0.82709968  -0.98055965
C    5.43222761  -0.04114999  -0.86496967
O    4.47200823   0.22184992  -0.14477995
C    5.48784828  -1.28082955  -1.68521929
C    4.45644808  -2.13418937  -1.70101941
H    7.25784731   1.04002964  -3.41505861
H    8.98296642   0.82767969  -3.03993893
H    8.11054707   2.22118902  -2.36421895
H    6.53073788   1.52983940  -0.25176990
H    6.37975740  -1.48096943  -2.26302910
H    3.55419850  -1.94814920  -1.12381959
H    4.49410820  -3.04154873  -2.29440904

