%chk=mol_4158.chk
# wB97XD/Def2SVP opt freq pop=full gfinput

C 4 H 6 N 2 O 1

1 2
C    1.05074954  -0.01526999   0.09025996
C    2.53524923  -0.00452000  -0.02066999
N    3.26614881  -1.07458961  -0.11054996
N    4.55981827  -0.63496977  -0.19096993
C    4.71069813   0.74180973  -0.15519994
O    5.74546766   1.37972939  -0.21073993
C    3.31716871   1.27680957  -0.03251999
H    0.67289972  -1.04022968   0.05403998
H    0.62139982   0.55672979  -0.73616970
H    0.75544971   0.44484982   1.03661954
H    5.32982826  -1.28858948  -0.27063993
H    3.04991889   1.88159931  -0.90067965
H    3.18427873   1.81632936   0.90653968

