%chk=mol_5816.chk
# wB97XD/Def2SVP opt pop=full gfinput

C 4 H 8 N 2 O 1

1 2
N    3.831117  -2.738289  -1.829463
C    4.516105  -0.297311  -1.372338
N    4.235897   1.450799  -3.048166
C    5.720239   0.355722   1.145552
C    8.466974  -0.297594   1.152431
C    9.797399  -1.061799   3.546789
O    9.010762  -2.894002   1.704042
H    4.734577  -4.046679  -0.746574
H    3.734987  -3.261932  -3.665162
H    3.378623   0.713995  -4.612368
H    4.702262  -0.658022   2.641554
H    5.490694   2.383228   1.502238
H    9.534822   0.636346  -0.319590
H    8.775057  -0.997586   5.316593
H   11.802322  -0.679375   3.701218

