%chk=mol_4674.chk
# wB97XD/Def2SVP opt freq pop=full gfinput

C 5 H 13 N 1 O 1

1 2
C    1.26124954   0.75786966   0.23679991
C    2.66397905   0.46755981  -0.27564988
N    3.49758863   1.66045940  -0.13784996
C    4.85396814   1.41664958  -0.62820977
C    5.73619747   2.65251899  -0.45682982
C    5.25072813   3.85024858  -1.26149952
O    6.17909765   4.91761827  -1.09796965
H    0.62916976  -0.12920995   0.12824994
H    0.79638970   1.57418942  -0.32559988
H    1.27507961   1.03434968   1.29601955
H    2.60217905   0.16569993  -1.32829952
H    3.08890891  -0.36788985   0.29427987
H    3.53540874   1.93475926   0.84434968
H    4.82731819   1.13790953  -1.68835938
H    5.30881834   0.58560973  -0.07608997
H    6.76121759   2.40711904  -0.76387972
H    5.80830765   2.92835879   0.60355979
H    4.27045822   4.19340849  -0.91612965
H    5.18939829   3.60718870  -2.32696915
H    5.81801796   5.67862797  -1.58406937

