%chk=mol_6352.chk
# wB97XD/Def2SVP opt freq pop=full gfinput

C 4 H 8 N 2 O 1

1 2
O    0.71165979   1.60291946  -0.46985984
N    2.03025913   1.41941953  -0.90010965
C    2.80871892   1.42111945   0.13266996
C    4.32764816   1.24362946  -0.02838999
C    5.10029793   2.33335924  -0.79708976
N    6.20168781   2.20397902   0.18470994
C    5.23093796   1.64959931   1.15299952
H    0.21503992   1.60337949  -1.30997956
H    2.41849899   1.55123937   1.15768957
H    4.56554794   0.23339991  -0.39372984
H    4.63025856   3.32386875  -0.79389971
H    5.37492800   2.08040929  -1.82566929
H    6.91459703   1.53204942  -0.10298996
H    5.61392784   0.82369971   1.75999928
H    4.80603790   2.40705895   1.82223940

