%chk=mol_4944.chk
# wB97XD/Def2SVP opt freq pop=full gfinput

C 4 H 7 N 1 O 2

1 2
C    0.25054991  -0.55216980   0.08458997
C    1.73461938  -0.24648990   0.09195997
O    1.90642929   1.16113949   0.25614989
N    3.28000855   1.44253945   0.30224988
C    3.43025875   2.71778893   0.42740983
C    4.81015825   3.28324890   0.50470978
O    4.96561813   4.49011803   0.60352975
H    0.07310997  -1.62347937  -0.04578998
H   -0.25154990  -0.00946000  -0.72332972
H   -0.21414991  -0.22862992   1.02204967
H    2.18814898  -0.56040984  -0.85441971
H    2.22238922  -0.77481973   0.91840965
H    2.60856915   3.44973874   0.48369983
H    5.62515783   2.54428911   0.46737981

