%chk=mol_3938.chk
# wB97XD/Def2SVP opt pop=full gfinput

C 5 H 7 N 1 O 1

1 2
C    1.918280  -0.147984   0.327716
C    4.732630   0.148986  -0.173477
C    6.079325   2.157973   1.448248
C    7.708779  -0.032031   2.376576
O    6.141213  -1.860794   1.083153
C    5.315214   0.241356  -2.861064
N    5.774493   0.376830  -5.004070
H    1.530527  -0.328775   2.353559
H    1.162748  -1.838344  -0.600385
H    0.861073   1.491769  -0.367155
H    4.919619   3.035637   2.918417
H    7.112135   3.630788   0.430291
H    9.646542  -0.064270   1.656402
H    7.709761  -0.330211   4.420523

