%chk=mol_2152.chk
# wB97XD/Def2SVP opt pop=full gfinput

C 6 H 8 O 1

1 2
C   -2.043607  -0.009675  -1.926443
C   -1.006506   1.902444   0.082638
C   -1.952238  -0.090877   2.057477
C   -1.070624  -2.035405   0.003874
C    1.743065  -2.240459  -0.064950
C    2.970139  -0.024245  -0.047829
O    1.728211   2.281844   0.027647
H   -4.098268   0.032352  -2.193462
H   -1.135933   0.023225  -3.783704
H   -1.985138   3.722213   0.142126
H   -0.960510  -0.132848   3.870934
H   -3.992727  -0.061756   2.419756
H   -2.039052  -3.858197  -0.011206
H    2.692803  -4.050760  -0.123626
H    4.999384   0.209457  -0.089611

