%chk=mol_1479.chk
# wB97XD/Def2SVP opt pop=full gfinput

C 5 H 12 N 2

1 2
C    1.909889   1.019847   0.859995
C    4.733461   1.085818   1.388590
N    5.993909   2.754125  -0.418121
C    8.740361   2.838010  -0.036566
C   10.423597   1.251320  -1.682178
C   10.375692   4.062288  -2.032797
N   12.566225   5.579492  -1.291552
H    0.957127  -0.195454   2.235962
H    1.521626   0.271667  -1.029561
H    1.074914   2.908402   0.995281
H    5.496930  -0.834238   1.246539
H    5.048479   1.757861   3.322894
H    5.241571   4.524212  -0.288920
H    9.336267   3.103913   1.913178
H    9.556478   0.104124  -3.141594
H   12.073328   0.393044  -0.829646
H    9.428978   4.739357  -3.728808
H   13.451165   4.839286   0.249803
H   12.011723   7.354984  -0.789357

