%chk=mol_6929.chk
# wB97XD/Def2SVP opt pop=full gfinput

C 6 H 5 N 1

1 2
C    1.749376   0.100363  -0.008164
C    4.018370   0.041045  -0.002362
C    6.708603  -0.034998   0.004724
C    8.262204   2.050939   0.009524
N   10.714955   1.213355   0.016157
C   10.739861  -1.378555   0.015571
C    8.269347  -2.204479   0.008655
H   -0.261103   0.151348  -0.013171
H    7.840285   4.050817   0.008863
H   12.264776   2.333963   0.020787
H   12.505414  -2.408796   0.020352
H    7.661441  -4.156812   0.006293

