%chk=mol_4182.chk
# wB97XD/Def2SVP opt freq pop=full gfinput

C 4 H 7 N 1 O 2

1 2
C    0.89762968   0.22577991  -0.24781992
C    2.32086897   0.22927992   0.18336993
O    3.08689880  -0.87370968  -0.31104988
C    3.43983889   0.43096983  -0.80831969
C    4.76201820   0.89640963  -0.36010987
N    5.47020817   1.60263932  -1.17874956
O    6.68170738   1.93036926  -0.56030977
H    0.46478984   1.22209954  -0.12145995
H    0.32198989  -0.47644982   0.36212987
H    0.78608972  -0.06417997  -1.29727960
H    2.45545888   0.52126980   1.21524954
H    3.17879891   0.65396976  -1.83722937
H    5.10366821   0.62757975   0.65479976
H    7.15914726   2.40076923  -1.26886952

