%chk=mol_0892.chk
# wB97XD/Def2SVP opt pop=full gfinput

C 5 H 6 O 1

1 2
O    1.929203  -0.019351   0.500286
C    4.573137   0.000000   0.000000
C    4.939612  -1.383903  -2.451863
C    6.203404  -0.650633  -4.523759
C    5.484023   2.572238   0.000000
C    6.234774   4.692322   0.000000
H    1.649636   1.184480   1.857128
H    5.489484  -1.084816   1.506338
H    4.029066  -3.228673  -2.505550
H    7.160456   1.158969  -4.646024
H    6.291087  -1.868032  -6.173338
H    6.904304   6.591610  -0.014324

