%chk=mol_5518.chk
# wB97XD/Def2SVP opt freq pop=full gfinput

C 4 H 4 N 2 O 1

1 2
N    1.03564966  -0.00040000  -0.25897992
C    2.29779911  -0.05446998  -0.01332999
C    3.14597893  -1.24766958   0.13940994
C    4.37157869  -0.76686972   0.38363984
N    4.42665863   0.60042977   0.40896985
C    3.19964862   1.15830958   0.17553994
O    2.84576893   2.31279922   0.11880995
H    0.76074976   0.99349964  -0.30200988
H    2.80353880  -2.26282907   0.06177998
H    5.26796818  -1.34987950   0.55229974
H    5.25478792   1.15537953   0.57644975

