%chk=mol_4645.chk
# wB97XD/Def2SVP opt freq pop=full gfinput

C 4 H 6 N 2 O 1

1 2
C    0.50337982   0.65079975   1.40810955
C    1.34136951   0.06990997   0.53950977
C    2.66503906   0.67683977   0.23718990
O    3.05593872   1.70848930   0.77880973
N    3.44770885   0.02856999  -0.68865979
N    3.07593870  -1.11329949  -1.33452940
C    3.94372845  -1.56420946  -2.17643905
H   -0.46133983   0.20770992   1.62803936
H    0.76204967   1.57673943   1.91423929
H    1.07355964  -0.85248971   0.04040999
H    4.34414816   0.46161982  -0.87995964
H    3.72399855  -2.48291922  -2.74236894
H    4.91507816  -1.08069956  -2.37431908

