%chk=mol_0859.chk
# wB97XD/Def2SVP opt pop=full gfinput

C 6 H 10

1 2
C    1.318897  -0.429535   0.874055
C    3.985716  -0.954822   0.038928
C    4.715812  -3.283248  -0.663180
C    5.811078   1.241909   0.106751
C    5.093417   3.295777  -1.717629
C    4.598686   5.687773  -1.046266
H    1.309826   0.424508   2.758584
H    0.183039  -2.157746   0.967143
H    0.381422   0.861621  -0.441516
H    3.404720  -4.861320  -0.680131
H    6.646091  -3.677294  -1.238829
H    7.726655   0.610287  -0.371993
H    5.911479   1.970021   2.045421
H    4.989973   2.773740  -3.703636
H    4.685160   6.297758   0.909053
H    4.091540   7.089326  -2.456587

