%chk=mol_0090.chk
# wB97XD/Def2SVP opt freq pop=full gfinput

C 3 H 7 N 1 O 1

1 2
C    1.00832963  -0.11272996  -0.08673996
C    2.51197910   0.01454999   0.07353997
C    2.96318889   1.45428944   0.00481000
N    2.82820892   2.05243921  -1.21176958
O    3.42746878   2.06234908   0.96175969
H    0.70073974  -1.15685964   0.02634999
H    0.68057972   0.23168992  -1.07304955
H    0.48265982   0.48429984   0.66573977
H    3.03020883  -0.55686980  -0.70407975
H    2.82026887  -0.39670986   1.04114962
H    2.51174903   1.56379938  -2.03652930
H    3.14181900   3.01016879  -1.30006945

