%chk=mol_0353.chk
# wB97XD/Def2SVP opt freq pop=full gfinput

C 5 H 9 N 1

1 2
C    0.90945965   0.11878996   0.33461985
C    2.40532899   0.02554999   0.02336999
C    2.61033916  -0.71229976  -1.30377948
C    3.02738905   1.43281937   0.00000000
C    4.46968842   1.39825952  -0.06076998
N    5.61934805   1.37070942  -0.10921996
H    0.74294972   0.60200977   1.30291951
H    0.45821983  -0.87815964   0.37841988
H    0.37984985   0.69759971  -0.42947984
H    2.87898898  -0.56557977   0.81854969
H    2.16921926  -0.15713994  -2.13834929
H    2.14233899  -1.70196927  -1.27210951
H    3.67347860  -0.85920972  -1.51749945
H    2.72641921   1.97569931   0.90461969
H    2.62880898   2.00234914  -0.84836966

