%chk=mol_4446.chk
# wB97XD/Def2SVP opt pop=full gfinput

C 4 H 9 N 1 O 2

1 2
C    1.973082  -0.628542   0.437113
C    4.622062   0.137648  -0.414304
C    5.552337  -1.617946  -2.506759
C    4.662219   2.883495  -1.282670
O    5.170272   3.567652  -3.444744
N    4.094016   4.604204   0.583850
O    4.367308   7.172569  -0.111380
H    1.337435   0.511889   2.042341
H    1.931848  -2.612471   1.023343
H    0.596643  -0.375375  -1.088577
H    5.923913  -0.025530   1.191642
H    4.321766  -1.530130  -4.169662
H    5.609935  -3.580143  -1.851988
H    7.461452  -1.094321  -3.112454
H    4.285408   4.204471   2.448499
H    4.841327   7.048017  -1.903899

