%chk=mol_5738.chk
# wB97XD/Def2SVP opt freq pop=full gfinput

C 6 H 9 N 1

1 2
C    0.97075963  -0.01318999   0.01193000
C    2.48672915   0.00370000   0.02313999
C    3.15192890   1.04649961   0.95758963
C    4.24383831  -0.00720000   1.23539948
C    3.19276881  -1.09147954   0.88170964
C    3.69149852  -2.23583913   0.15340994
N    4.09105825  -3.15610862  -0.43052983
H    0.59979981  -0.86440969  -0.56807983
H    0.57922977   0.90139967  -0.44512981
H    0.55930978  -0.08839997   1.02393961
H    2.87817883   0.07020997  -1.00309956
H    2.56101894   1.30813956   1.84311926
H    3.49430871   1.96556926   0.47511983
H    5.09523773   0.05567998   0.54641980
H    4.62209797  -0.02958999   2.26121926
H    2.60306907  -1.38664949   1.76120937

