%chk=mol_6677.chk
# wB97XD/Def2SVP opt pop=full gfinput

C 5 H 10 N 2

1 2
C    1.845204   0.094052  -0.056862
C    4.731893  -0.029839   0.014438
C    5.716969   0.013719   2.719070
C    5.757032  -2.311249  -1.517186
N    6.550755  -1.292611  -4.034150
C    6.518270   1.135310  -3.704789
N    5.796508   2.059499  -1.421074
H    1.131795   0.097340  -2.001220
H    1.152431   1.820940   0.852021
H    1.008944  -1.525217   0.923868
H    7.787467   0.005669   2.770357
H    5.046117  -1.631476   3.780510
H    5.089845   1.719197   3.712480
H    4.326036  -3.783440  -1.776702
H    7.414719  -3.169997  -0.618904
H    6.981140   2.538205  -5.170310
H    4.904349   3.752542  -1.373472

