%chk=mol_0588.chk
# wB97XD/Def2SVP opt freq pop=full gfinput

C 5 H 6 O 1

1 2
C    0.96315968  -1.04125953  -0.06952997
C   -0.47710982  -1.50186944  -0.02832999
C   -1.29270947  -0.43353984  -0.00468000
C   -0.57127982   0.84796965  -0.03764999
O    0.34984988   1.17814958  -1.09048951
C    0.89491969   0.46556982   0.02020999
H    1.51166940  -1.45020950   0.78432971
H    1.44885945  -1.35907948  -0.99625963
H   -0.78874969  -2.53576899  -0.02903999
H   -2.37293911  -0.48739982   0.01380000
H   -0.92735964   1.63945937   0.60865980
H    1.56752932   0.95053965   0.70858973

