%chk=mol_5539.chk
# wB97XD/Def2SVP opt pop=full gfinput

C 5 H 7 N 1 O 1

1 2
N    1.778553  -0.020938  -0.406953
C    4.516483  -0.008069  -0.132791
C    5.330199   2.351670   1.209387
C    6.725951   2.254802   3.322498
O    7.504405   0.038985   4.448019
C    6.744168  -2.200000   3.355190
C    5.350420  -2.340464   1.245859
H    1.256233  -1.570551  -1.416954
H    1.246955   1.495284  -1.461968
H    5.374948  -0.019143  -2.018605
H    4.793839   4.167659   0.429573
H    7.375506   3.884559   4.366023
H    7.408388  -3.808535   4.424038
H    4.829233  -4.172440   0.492538

