%chk=mol_1239.chk
# wB97XD/Def2SVP opt freq pop=full gfinput

C 5 H 12 N 2

1 2
C    0.97126967   0.02742999  -0.14537995
C    2.48236918  -0.08047996  -0.02593999
C    3.13931894   1.29515946   0.01988999
C    4.64479828   1.15444958   0.13882995
C    5.43371820   0.95354962  -1.13605952
N    5.16304779   1.18666947   1.33392954
N    6.50518751   1.05105960   1.40154946
H    0.52049983  -0.96952963  -0.16575994
H    0.68743974   0.54769975  -1.06549966
H    0.54863983   0.57400978   0.70348972
H    2.87319899  -0.65754980  -0.87265968
H    2.73539901  -0.64448977   0.88024968
H    2.76692891   1.86599922   0.87831968
H    2.90678906   1.86952925  -0.88335961
H    4.76265812   0.89117962  -1.99687922
H    6.00832796   0.02511999  -1.07807958
H    6.11136770   1.79886937  -1.28428960
H    6.77546740   0.89309967   2.37600923
H    6.96715736   1.92752922   1.14662957

