%chk=mol_3831.chk
# wB97XD/Def2SVP opt pop=full gfinput

C 7 H 12

1 2
C    1.909493  -0.209779  -0.056219
C    4.782840  -0.220531   0.021448
C    5.848722   2.472801   0.040043
C    8.755611   2.543911  -0.006935
C    9.681615   5.260865  -0.351546
C    9.838689   1.477123   2.334738
C   10.721399   0.601689   4.231909
H    1.186124  -2.147485  -0.050172
H    1.217154   0.728263  -1.764910
H    1.127411   0.772671   1.587729
H    5.502221  -1.250224  -1.625656
H    5.396718  -1.252019   1.708256
H    5.137599   3.480573   1.708709
H    5.122311   3.480649  -1.621385
H    9.427088   1.430145  -1.621990
H    9.063731   6.475657   1.208555
H    8.960571   6.067589  -2.115813
H   11.750222   5.335963  -0.420729
H   11.502366  -0.179883   5.916506

