%chk=mol_5518.chk
# wB97XD/Def2SVP opt pop=full gfinput

C 4 H 4 N 2 O 1

1 2
N    1.957095  -0.000756  -0.489401
C    4.342213  -0.102933  -0.025190
C    5.945041  -2.357755   0.263447
C    8.261089  -1.449174   0.724975
N    8.365175   1.134648   0.772841
C    6.046462   2.188889   0.331723
O    5.377726   4.370559   0.224518
H    1.437609   1.877443  -0.570716
H    5.297923  -4.276129   0.116747
H    9.955021  -2.550904   1.043696
H    9.930114   2.183352   1.089333

