%chk=mol_6480.chk
# wB97XD/Def2SVP opt freq pop=full gfinput

C 4 H 6 N 2 S 1

1 2
C    1.06992960   0.17165993   0.00626000
C    2.55104923   0.13431995   0.00015000
C    3.48550868   1.16011965  -0.00053000
C    3.22987866   2.62063909   0.00505000
N    4.80943823   0.73519975  -0.00673000
N    4.90847826  -0.58196974  -0.01089000
S    3.42191863  -1.34422946  -0.00728000
H    0.62681973  -0.82965970  -0.00189000
H    0.69997972   0.70786977  -0.87405968
H    0.70703977   0.69068974   0.89970964
H    2.15972924   2.84762883  -0.00232000
H    3.68153858   3.08668876  -0.87663966
H    3.66766882   3.07723880   0.89856964

