%chk=mol_3589.chk
# wB97XD/Def2SVP opt pop=full gfinput

C 5 H 8 O 2

1 2
O    1.861683   0.126820   0.032163
C    4.530921   0.087513  -0.056465
C    5.613791   2.143384   1.593927
C    8.177582   1.071475   2.256125
O    7.843365  -1.606154   2.554551
C    5.690495  -2.195106   1.164506
C    4.818216  -4.567336   1.138711
H    1.271276  -1.342235  -0.894483
H    5.174694   0.280057  -2.015110
H    4.462116   2.404185   3.299084
H    5.729196   3.975492   0.642885
H    9.555136   1.392804   0.741491
H    8.925044   1.871471   4.010131
H    3.119201  -5.098878   0.133037
H    5.815122  -6.041171   2.159976

