%chk=mol_1204.chk
# wB97XD/Def2SVP opt freq pop=full gfinput

C 5 H 10 N 2

1 2
C    0.85017967  -0.06018998  -0.29821989
C    2.33793926   0.07783997  -0.37357986
C    3.08404899   1.14162958  -0.01421000
C    2.56132913   2.41539907   0.57971978
C    4.57460833   1.03478968  -0.19757992
N    5.22550774  -0.16185994  -0.24416991
N    5.34803772   2.06989932  -0.30288991
H    0.58982974  -0.86630970   0.39396983
H    0.45737985  -0.32009986  -1.28621948
H    0.34037986   0.84782970   0.02811999
H    2.82813883  -0.79148966  -0.81034964
H    1.54487944   2.31927896   0.96817964
H    2.56218910   3.21294880  -0.16917995
H    3.18434882   2.72904897   1.42411935
H    4.86656809  -0.87439966   0.37883988
H    6.22658777  -0.02337999  -0.14871995
H    4.80921841   2.93791890  -0.28844988

