%chk=mol_2574.chk
# wB97XD/Def2SVP opt pop=full gfinput

C 5 H 8 O 2

1 2
C    1.895603   0.262351   0.257664
C    4.682269  -0.254981  -0.146870
O    6.239479   1.678209   1.041315
C    7.530710  -0.052497   2.430490
O    9.300438   0.285197   3.835936
C    5.904128  -2.292446   1.531491
C    7.300768  -4.400756   0.195813
H    0.756533  -1.306613  -0.464551
H    1.319029   1.978203  -0.744174
H    1.446207   0.510717   2.262475
H    5.153245  -0.409390  -2.160581
H    4.680285  -3.006422   3.043725
H    8.565826  -3.675914  -1.272239
H    5.962993  -5.701247  -0.697498
H    8.438100  -5.486139   1.540146

