%chk=mol_5559.chk
# wB97XD/Def2SVP opt freq pop=full gfinput

C 6 H 11 N 1

1 2
C    1.00318956   0.04663998   0.00498000
C    2.52370906   0.00927000   0.08070996
C    3.08226871  -1.13037956   0.93455964
C    3.93272853  -0.30341989   1.88045919
C    4.56610823   0.77972972   0.97352964
N    3.10174870   1.19945955   0.77200973
C    2.99995875   0.86381966   2.26591897
H    0.62868977  -0.84124964  -0.51662982
H    0.66535974   0.92897969  -0.54875982
H    0.53250980   0.06971997   0.99306959
H    2.91912913  -0.04561998  -0.94143969
H    3.69372869  -1.82093930   0.34442988
H    2.31213903  -1.69509935   1.47059941
H    4.53545809  -0.78396970   2.64787889
H    5.08965826   0.43612984   0.07429998
H    5.19295835   1.53180945   1.47046947
H    3.42141867   1.62755930   2.93349886
H    2.00285912   0.60697979   2.63834882

