%chk=mol_4850.chk
# wB97XD/Def2SVP opt pop=full gfinput

C 5 H 12 N 2

1 2
C   -2.801859   1.410284   0.245891
C   -2.782300  -1.431694  -0.256795
N   -0.593166  -2.778049   0.754114
C    1.678474  -2.357055  -0.776848
C    3.188913   0.060112  -0.148287
N    1.782976   2.260566   0.776848
C   -0.472904   2.824706  -0.710254
H   -4.480087   2.216101  -0.666960
H   -3.041873   1.750982   2.279539
H   -2.992778  -1.799870  -2.287249
H   -4.472037  -2.241536   0.628504
H   -0.258515  -2.222034   2.565927
H    2.938033  -3.978932  -0.494258
H    1.200449  -2.373118  -2.793715
H    4.587065  -0.408162   1.309410
H    4.285048   0.615295  -1.819617
H    1.285562   1.970984   2.614323
H   -0.842742   4.852514  -0.504651
H   -0.166315   2.500694  -2.734075

