%chk=mol_5393.chk
# wB97XD/Def2SVP opt pop=full gfinput

C 6 H 13 N 1

1 2
C    1.804216  -0.145036  -0.107091
C    4.614088  -0.332252  -0.159058
C    5.951050  -1.251282  -2.498974
C    6.132842   1.491410  -1.739228
C    8.586916   2.536976  -0.769969
C    8.143302   4.671724   1.131851
N   10.535790   5.726777   2.013900
H    1.214092   1.301190   1.249109
H    0.980749  -1.950934   0.476211
H    1.022058   0.350865  -1.957718
H    5.366785  -0.914684   1.656364
H    4.833825  -1.711865  -4.154336
H    7.591370  -2.454263  -2.251174
H    5.129832   2.854942  -2.896043
H    9.682503   3.244603  -2.382208
H    9.716669   1.036949   0.113308
H    7.068709   3.964759   2.753822
H    7.019123   6.175682   0.260877
H   11.571719   4.347995   2.869776
H   10.182128   7.052307   3.365867

