%chk=mol_5012.chk
# wB97XD/Def2SVP opt freq pop=full gfinput

C 5 H 9 N 1 O 1

1 2
C    1.72246933  -0.52045983   0.31065989
N    1.66940939   0.91809964   0.07202997
C    2.92268896   1.58160949   0.45734984
C    3.98197865   1.79834938  -0.58767974
C    3.20079875   2.97349882  -0.05779998
C    3.85039878   3.97086835   0.82558966
O    4.67849827   3.65502858   1.67207944
H    0.79128969  -0.98434961  -0.03071999
H    1.83908927  -0.73981977   1.37803948
H    2.54799891  -0.98481965  -0.23910990
H    0.88659966   1.30324948   0.60112977
H    3.27215886   1.36111951   1.46562946
H    3.78006864   1.47265947  -1.60144937
H    5.01689816   1.68546939  -0.28434989
H    2.46782899   3.40284872  -0.73394972
H    3.54298878   5.01966810   0.68007976

