%chk=mol_0340.chk
# wB97XD/Def2SVP opt freq pop=full gfinput

C 5 H 7 N 1

1 2
C    0.99292964  -0.20735991   0.00057000
C    2.47903919  -0.03833998  -0.00030000
C    3.13901877   1.13798952   0.00000000
C    2.45736909   2.47951913   0.00267000
C    4.54501867   1.13798952   0.00000000
N    5.69602823   1.13798952   0.00000000
H    0.74135971  -1.27264953  -0.01284000
H    0.54529977   0.24853991  -0.88732970
H    0.54976976   0.22577991   0.90182966
H    3.04932904  -0.96771967  -0.00081000
H    1.36658955   2.40658927  -0.00005000
H    2.74942899   3.05474877  -0.88238966
H    2.74534893   3.04880881   0.89287966

