%chk=mol_5947.chk
# wB97XD/Def2SVP opt freq pop=full gfinput

C 5 H 9 N 1 O 1

1 2
O    1.03998959   0.31603989  -0.39334986
C    2.41227913   0.06285997  -0.05195998
C    3.10662889  -0.95862961  -0.89735967
C    3.43818879   0.50107980  -1.07048965
N    4.73484802   1.00278962  -0.58041984
C    5.76067781   0.84012967  -1.60796940
C    5.17219782   2.19041920  -1.30755949
H    0.74354970   1.15852952  -0.00732000
H    2.68702888   0.10270996   0.99748963
H    2.53518915  -1.44376945  -1.67897940
H    3.83568859  -1.59815931  -0.41603985
H    3.03526878   0.96870959  -1.96793926
H    5.49407768   0.34937990  -2.53653908
H    6.75716734   0.62406975  -1.24215961
H    5.77360773   2.89085889  -0.74096972
H    4.50903845   2.64312911  -2.03358912

