%chk=mol_0518.chk
# wB97XD/Def2SVP opt freq pop=full gfinput

C 4 H 10 N 2

1 2
N    1.02784967   0.01986999   0.07664997
C    2.48015928  -0.00845000  -0.05154998
C    3.10042882   1.04250968   0.89889967
C    4.15518856  -0.03803999   1.25626957
C    3.06748891  -1.08248961   0.90702963
N    3.66206861  -2.17309928   0.13780995
H    0.56557977  -0.77155972  -0.36865985
H    0.59917974   0.85627973  -0.31566986
H    2.86572886   0.01871999  -1.07640958
H    2.48261905   1.34050941   1.75582933
H    3.49517870   1.94210935   0.41921985
H    5.03298807  -0.01527999   0.59801978
H    4.49464798  -0.03527999   2.29576921
H    2.44919920  -1.39043951   1.75769937
H    4.22581816  -1.87873936  -0.65791976
H    2.96918869  -2.82218885  -0.23159991

