%chk=mol_6173.chk
# wB97XD/Def2SVP opt freq pop=full gfinput

C 4 H 6 N 2 O 1

1 2
O    1.06717956   0.00319000   0.07567997
C    2.28557920   0.03517998   0.01208999
C    3.01248884   1.33995950   0.04589998
N    4.30039835   1.41967952  -0.08432997
N    4.58720827   2.73784900   0.05902998
C    3.40454865   3.57762861  -0.11971995
C    2.28305912   2.62312913   0.24955991
H    2.93134904  -0.85222965  -0.07454997
H    5.38484812   3.03794885  -0.50458980
H    3.31576872   3.88728857  -1.16712964
H    3.42567873   4.46763849   0.51483983
H    1.41916943   2.71207881  -0.41240984
H    1.98533916   2.70904875   1.29856944

