%chk=mol_5837.chk
# wB97XD/Def2SVP opt pop=full gfinput

C 4 H 8 N 2 O 1

1 2
N    2.274285   2.872138  -0.918936
C    4.569811   3.127100   0.161231
N    4.986912   4.191261   2.299192
O    6.432684   2.158256  -1.300604
C    8.996892   2.322454  -0.396200
C   10.971523   1.325983  -2.182615
C   10.695169   4.121417  -1.793426
H    2.373420   2.507553  -2.796625
H    0.991350   4.209516  -0.469200
H    3.298423   4.719232   3.066610
H    9.342504   2.030076   1.606588
H   10.344568   0.532393  -3.962302
H   12.603868   0.396143  -1.369409
H   12.131834   5.096384  -0.709025
H    9.880187   5.232387  -3.306907

