%chk=mol_0025.chk
# wB97XD/Def2SVP opt pop=full gfinput

C 3 H 5 N 1

1 2
C    1.891975  -0.099362   0.006482
C    4.762110   0.000000   0.000000
C    5.672996   2.572238   0.000000
N    6.399047   4.622572   0.000000
H    1.240530  -2.062636   0.002079
H    1.106208   0.842175  -1.661768
H    1.114447   0.831876   1.684351
H    5.471494  -1.005372  -1.665189
H    5.479337  -1.008698   1.659765

