%chk=mol_6709.chk
# wB97XD/Def2SVP opt freq pop=full gfinput

C 3 H 3 N 1 O 2 S 1

1 2
O    0.88270968  -0.04197999   0.10020996
S    2.31211925   0.04645998   0.31052989
O    2.93518901  -0.04198998   1.61389935
C    3.01834893   1.28088951  -0.64738971
C    3.73041868   0.68484974  -1.61292946
N    3.77786851  -0.69585973  -1.67720938
C    3.06166887  -1.18737960  -0.70626974
H    2.88566899   2.33181930  -0.46708983
H    4.28280830   1.24395955  -2.36223912
H    2.92746878  -2.26234913  -0.52352983

