%chk=mol_4401.chk
# wB97XD/Def2SVP opt freq pop=full gfinput

C 5 H 5 N 1 O 1

1 2
C    0.97627962  -0.00024000   0.06198998
C    2.47263885  -0.06073998  -0.02713999
C    3.15706873  -1.20680964   0.12624995
C    3.16000867   1.25011945  -0.30045989
O    2.49166894   2.27385926  -0.43382981
C    4.60995865   1.33792949  -0.41204986
N    5.77035761   1.37163949  -0.49499983
H    0.66648978   0.66924977   0.87123966
H    0.53881979  -0.98428965   0.26205990
H    0.55000979   0.36537987  -0.87805969
H    2.63876915  -2.14235926   0.32315990
H    4.23978853  -1.27350962   0.06572998

