%chk=mol_0033.chk
# wB97XD/Def2SVP opt pop=full gfinput

C 3 H 6 O 1

1 2
C    0.663502   2.013787  -0.138800
C    1.835699  -0.567674   0.378191
O   -0.613726  -1.784449   0.256738
C   -1.854483   0.652069   0.219038
H    1.086347   3.474980   1.254892
H    0.983281   2.733451  -2.049238
H    2.691518  -0.797937   2.246261
H    3.117897  -1.268063  -1.081377
H   -3.182299   0.818932  -1.352779
H   -2.819528   1.027179   2.008628

