%chk=mol_4379.chk
# wB97XD/Def2SVP opt freq pop=full gfinput

C 4 H 8 N 2 O 1

1 2
C    1.01082969  -0.02437999  -0.27433991
C    2.45415902  -0.19657993   0.08403997
C    3.00393891  -1.38839948   0.36571988
C    3.29681873   1.04387963   0.15177995
N    4.54511833   1.04556954  -0.23470992
N    2.76206899   2.23662925   0.59860981
O    3.74849844   3.16399884   0.96799964
H    0.91322964   0.52701980  -1.21503949
H    0.47890982   0.52427977   0.50941980
H    0.50633979  -0.98816967  -0.40346983
H    2.41475916  -2.30046892   0.33181986
H    4.04281855  -1.49503934   0.66369975
H    4.80330849   0.11966995  -0.58940983
H    1.99353921   2.17936921   1.26119959
H    4.53587866   2.82758904   0.47648984

