%chk=mol_0585.chk
# wB97XD/Def2SVP opt freq pop=full gfinput

C 5 H 8 O 1

1 2
C    0.93638963   0.00170000   0.99836963
C    0.29284990   0.97590965  -0.02695999
C   -1.21097946   0.77925968   0.08270997
C   -1.22423947  -0.75024974   0.09202997
C    0.27754992  -0.97333962  -0.01580999
O    0.74287969  -0.00914000  -1.06429958
H    2.02983928  -0.00719000   1.02372968
H    0.53381979   0.01117000   2.01405931
H    0.72967976   1.96756923  -0.14379995
H   -1.62521935   1.20348954   1.00207961
H   -1.74592936   1.18665957  -0.77985972
H   -1.76563931  -1.15966952  -0.76598972
H   -1.64502943  -1.15740955   1.01649964
H    0.69692975  -1.97362924  -0.12052996

