%chk=mol_2543.chk
# wB97XD/Def2SVP opt pop=full gfinput

C 7 H 14

1 2
C    1.627092   1.845431  -1.905449
C    4.437909   1.571572  -1.991563
C    5.995043   2.439580  -0.183889
C    8.867256   2.253593  -0.101535
C    9.616797   0.806460   2.307507
C   10.041286   0.900247  -2.394415
C    9.950599   4.949344   0.033108
H    0.973889   2.909366  -3.554046
H    0.985247   2.832983  -0.204997
H    0.737730  -0.021203  -1.941259
H    5.179739   0.604013  -3.643222
H    5.147123   3.397010   1.433754
H    8.894185   1.738246   4.011473
H   11.675938   0.681190   2.494930
H    8.869637  -1.126012   2.285397
H    9.599468   1.881468  -4.164295
H    9.363726  -1.050650  -2.554551
H   12.105491   0.822333  -2.233978
H    9.447421   6.045404  -1.651583
H   12.017335   4.919222   0.168186
H    9.235678   5.975692   1.685088

