%chk=mol_3526.chk
# wB97XD/Def2SVP opt freq pop=full gfinput

C 5 H 6 O 2

1 2
O    0.97906965  -0.15010995  -0.04900998
C    2.19025898  -0.06660997  -0.00522000
C    3.17969894  -1.21520960   0.05375998
C    4.47729826  -0.38486987  -0.03881999
C    4.31316853   0.71995974  -1.14577961
C    3.23757887   1.13442957  -0.07988997
O    4.31556845   0.77373970   0.92321968
H    3.06144881  -1.87837923  -0.80498970
H    3.10398889  -1.74501932   1.00499964
H    5.44556808  -0.87932968   0.04583998
H    3.93682837   0.38554987  -2.11466908
H    5.15506792   1.40410936  -1.26906955
H    2.90120888   2.16583920  -0.01585999

