%chk=mol_6746.chk
# wB97XD/Def2SVP opt freq pop=full gfinput

C 6 H 11 N 1

1 2
C    1.01153958   0.25844991  -0.25968990
C    2.47517920   0.04406998  -0.08343997
C    3.19816875  -0.97278965  -0.92871964
N    3.38018870   0.46194983  -1.14993954
C    4.68556833   0.89829969  -0.62846977
C    5.89516783   0.80025971  -1.52156937
C    5.29909801   2.14175916  -1.21723962
H    0.73241973   1.25664949   0.09125997
H    0.45256984  -0.47625983   0.32778987
H    0.69943976   0.16550994  -1.30512941
H    2.78070903   0.16825995   0.94845968
H    2.65020895  -1.49400949  -1.70407927
H    4.01002836  -1.53563952  -0.48442981
H    4.86892796   0.74812973   0.43461984
H    5.76336765   0.40262985  -2.52154899
H    6.84205770   0.54643983  -1.06198967
H    5.84025812   2.80227900  -0.55078983
H    4.76395798   2.65054893  -2.01047921

