%chk=mol_1402.chk
# wB97XD/Def2SVP opt freq pop=full gfinput

C 6 H 15 N 1

1 2
C    1.12535954   0.73990971  -2.10888910
C    2.17163920   0.96304965  -1.02772963
C    2.25748920   2.43839908  -0.63100976
N    3.23697877   2.59939909   0.44508982
C    3.44952893   4.00018835   0.83266968
C    2.21872902   4.60963869   1.50513947
C    4.63760853   4.05325842   1.79690933
H    1.07838964  -0.31976989  -2.37785912
H    1.36610949   1.31011951  -3.01234865
H    0.13308994   1.04634964  -1.76320934
H    3.14454889   0.61339974  -1.39350951
H    1.91498923   0.35306987  -0.15347993
H    1.26705945   2.77164888  -0.30278987
H    2.54847908   3.03511882  -1.50411940
H    4.12454844   2.19391918   0.14758994
H    3.70979857   4.59471798  -0.05122998
H    1.87829924   3.99750853   2.34839916
H    1.38552952   4.71558809   0.80280972
H    2.44314909   5.61141777   1.88946927
H    4.44757843   3.46583867   2.70285892
H    4.84268808   5.08554840   2.10345936
H    5.54762793   3.66409874   1.32527947

