%chk=mol_2957.chk
# wB97XD/Def2SVP opt pop=full gfinput

C 6 H 8 O 1

1 2
C    3.228200  -1.345825   0.372125
C    6.014885  -0.776148  -0.027023
C    6.562244   2.045723   0.211933
C    9.329332   2.642971  -0.182888
O   10.985885   1.074045  -0.564839
C    9.995461   5.295032  -0.074852
C   10.554045   7.494559   0.013549
H    2.877580  -3.375334   0.182944
H    2.062315  -0.360068  -1.023702
H    2.615532  -0.761730   2.259678
H    6.589929  -1.450762  -1.900157
H    7.134321  -1.834225   1.359186
H    6.018816   2.712211   2.096538
H    5.463614   3.094635  -1.196669
H   11.071679   9.438445   0.088231

