%chk=mol_0390.chk
# wB97XD/Def2SVP opt pop=full gfinput

C 5 H 13 N 1

1 2
C    1.891200  -0.244058   0.028516
C    4.762620  -0.085945   0.029763
C    5.657443   2.660734  -0.017102
N    8.421300   2.755259   0.001776
C    9.319317   5.368164  -0.047923
C   12.191738   5.420982  -0.048320
H    1.280951  -2.218520   0.071734
H    1.103165   0.635761  -1.669667
H    1.096948   0.710991   1.682480
H    5.495267  -1.105754  -1.619987
H    5.491847  -1.044433   1.716816
H    4.907865   3.651291   1.641643
H    4.920696   3.597642  -1.711997
H    9.112430   1.801759  -1.523932
H    8.631192   6.391432   1.615319
H    8.624899   6.342979  -1.738227
H   12.959761   4.496698   1.637107
H   12.866427   7.377661  -0.063419
H   12.961990   4.470714  -1.718687

