%chk=mol_3588.chk
# wB97XD/Def2SVP opt pop=full gfinput

C 5 H 6 O 2

1 2
O    1.827611  -0.300523  -0.128180
C    4.476969  -0.024302   0.090102
C    5.714040  -2.323059  -0.970318
C    7.207604  -1.613259  -2.869001
O    7.178767   0.957751  -3.342491
C    5.507229   2.029471  -1.610047
C    5.005563   4.508641  -1.584554
H    1.124538   1.380275  -0.318967
H    5.002955   0.274275   2.067020
H    5.420056  -4.224294  -0.301411
H    8.393899  -2.725098  -4.088536
H    5.901369   5.761302  -2.938127
H    3.712367   5.329746  -0.225803

