%chk=mol_0425.chk
# wB97XD/Def2SVP opt freq pop=full gfinput

C 5 H 11 N 1

1 2
C    1.10919952   0.16991994   0.11055996
C    2.60907888  -0.03117999  -0.08089998
N    2.88347888  -0.69244975  -1.35278952
C    3.33711886   1.28321958  -0.09473997
C    3.84226847   1.88828933   1.19210947
C    4.81816816   1.33827949   0.18997993
H    0.90683961   0.67062974   1.06375957
H    0.58017981  -0.78923970   0.11493996
H    0.67982978   0.79221976  -0.68313974
H    2.98752904  -0.66731972   0.72777975
H    2.49813914  -0.13846995  -2.11559916
H    2.39417911  -1.58524942  -1.38023949
H    2.95342898   1.96568930  -0.84627968
H    3.70624852   1.33932960   2.11675930
H    3.78280854   2.96492887   1.30304945
H    5.41464806   2.03801918  -0.38362986
H    5.32893801   0.41095984   0.42401984

