%chk=mol_2935.chk
# wB97XD/Def2SVP opt freq pop=full gfinput

C 6 H 12 O 1

1 2
C    1.18523955   0.17385992   0.30150989
C    2.64972901   0.28113988  -0.12978995
C    2.82684898  -0.28976992  -1.54613936
C    4.28320837  -0.33955988  -1.99780929
O    4.36512852  -0.93643969  -3.28841877
C    3.09274888   1.72182930  -0.04795998
C    4.08342838   2.15844917   0.74112970
H    1.04199958   0.56982976   1.31377947
H    0.85834968  -0.87205970   0.30564991
H    0.52408981   0.72941971  -0.37394986
H    3.24405885  -0.32801989   0.56374979
H    2.24418902   0.29013988  -2.27474928
H    2.41233921  -1.30600941  -1.58651948
H    4.89516783  -0.92828971  -1.30661952
H    4.71461821   0.66256970  -2.07222915
H    4.02330828  -1.84358931  -3.21362877
H    2.56766891   2.44071913  -0.67549974
H    4.64080858   1.48669946   1.38648951
H    4.35833836   3.20871878   0.75560975

