%chk=mol_7018.chk
# wB97XD/Def2SVP opt freq pop=full gfinput

C 6 H 9 N 1

1 2
C    0.99999964   0.00000000   0.00000000
C    2.44399905   0.00000000   0.00000000
C    3.63415861   0.00000000   0.00000000
C    5.07536840   0.04822998  -0.01867999
C    5.74268818   1.09477961   0.89859968
C    6.72337770  -0.04199998   1.23579955
N    5.65164804  -0.99412966   0.86647969
H    0.60597974   1.02086961   0.01176000
H    0.60600978  -0.52056980   0.87825966
H    0.60591978  -0.50027978  -0.88992965
H    5.50013828   0.03296999  -1.03163958
H    5.14058781   1.42864954   1.75267935
H    6.17622757   1.96720922   0.40219986
H    7.60091686  -0.08723997   0.57987976
H    7.04896736  -0.09541997   2.27682924
H    5.96199799  -1.83068931   0.37755987

