%chk=mol_7043.chk
# wB97XD/Def2SVP opt pop=full gfinput

C 6 H 9 N 1

1 2
C    2.717294  -0.857539  -1.665491
C    4.930333  -0.371539  -0.540329
C    6.214289   2.020854  -0.765207
C    8.437003   2.513430   0.357820
C    9.820529   4.898794   0.188632
C    9.099882   7.043274   1.917373
N   11.393707   5.581967   2.349270
H    1.817066  -2.686643  -1.441993
H    1.750642   0.531939  -2.823837
H    5.812306  -1.836417   0.601538
H    5.317765   3.481707  -1.899534
H    9.328425   1.043771   1.489898
H   10.584961   5.351818  -1.659350
H    7.592069   6.763254   3.273384
H    9.339196   8.961648   1.249298
H   12.954772   6.554175   1.766762

