%chk=mol_3921.chk
# wB97XD/Def2SVP opt freq pop=full gfinput

C 5 H 9 N 1 O 1

1 2
C    0.93937963  -0.02339999   0.18220994
C    2.43929911   0.02467999  -0.07853997
C    2.76758885   0.02778999  -1.56813931
C    3.20460868   1.07665968   0.77439970
N    4.09759855  -0.00817000   1.19514966
C    3.26874876  -0.99257964   0.74853975
O    3.24393892  -2.16810918   1.01421964
H    0.71682972  -0.05203998   1.25444949
H    0.49204981  -0.91392964  -0.27263990
H    0.44238985   0.85735971  -0.23835991
H    3.84892869   0.05572998  -1.74356937
H    2.32955909   0.90227968  -2.06116915
H    2.37527919  -0.87026972  -2.05726933
H    2.66109920   1.51356947   1.61803937
H    3.72450852   1.86159921   0.21880992
H    4.56116819  -0.15216994   2.08150911

