%chk=mol_5469.chk
# wB97XD/Def2SVP opt pop=full gfinput

C 4 H 7 N 1 O 2

1 2
C    2.548655  -0.943918   0.297802
O    5.212054  -0.569280   0.298350
N    5.689153   2.007399  -0.111664
C    8.100443   2.354070  -0.186781
O    9.273869   4.617149  -0.579466
C    7.716886   6.725838  -0.859863
C    8.413079   8.711826  -2.246866
H    2.172864  -2.959954   0.548039
H    1.736734  -0.332648  -1.501671
H    1.682518   0.095582   1.862609
H    9.527149   0.852002   0.041631
H    5.953204   6.624624   0.173723
H   10.209680   8.734711  -3.233662
H    7.188254  10.344947  -2.427675

