%chk=mol_1376.chk
# wB97XD/Def2SVP opt pop=full gfinput

C 7 H 8

1 2
C    1.863119   0.114272   0.008806
C    4.661747  -0.056843   0.005253
C    6.119708  -2.148468  -0.000151
C    8.720160  -1.285316  -0.001550
C   10.765713  -2.759586  -0.006973
C    8.715039   1.447530   0.002476
C    6.283056   2.171012   0.007030
H    0.993353  -1.763152   0.001852
H    1.193173   1.129603  -1.664716
H    1.196669   1.115732   1.692042
H    5.500010  -4.088649  -0.002589
H   10.606503  -4.803325  -0.010110
H   12.654438  -1.962707  -0.007653
H   10.355623   2.653043   0.002646
H    5.598786   4.093052   0.010790

