%chk=mol_4598.chk
# wB97XD/Def2SVP opt freq pop=full gfinput

C 4 H 10 N 2 O 1

1 2
C    0.75053972  -0.73942971  -0.17218994
C    2.24810910  -0.74249977   0.07619997
C    2.84765887   0.65194970  -0.05769998
O    4.26194811   0.55168980   0.18218994
C    5.03403807   1.65348947   0.14486994
N    6.31721783   1.36949956   0.43135986
N    4.64209843   2.83661890  -0.15242994
H    0.34825987  -1.75280941  -0.07772997
H    0.52078980  -0.37530985  -1.17856956
H    0.23450992  -0.10005996   0.55096978
H    2.74101901  -1.42335951  -0.62818980
H    2.45941901  -1.13941956   1.07644963
H    2.40130925   1.32792950   0.68016976
H    2.67904902   1.03777957  -1.06912959
H    6.58768749   0.41673985   0.23393990
H    6.95830774   2.07803917   0.09880996
H    3.64285874   2.86056900  -0.34216985

