%chk=mol_4231.chk
# wB97XD/Def2SVP opt pop=full gfinput

C 5 H 9 N 1 O 1

1 2
C    6.335534  -2.133784  -0.973417
C    4.775187   0.002362   0.146038
C    6.091211   2.561013  -0.020768
C    6.510787   3.489568  -2.687191
C    6.071463   6.210660  -2.235017
N    4.954068   6.765805  -0.144999
O    4.508905   4.449473   1.123178
H    5.351138  -3.936772  -0.732269
H    8.172782  -2.276421  -0.035395
H    6.656050  -1.852725  -2.996199
H    4.362149  -0.417705   2.134786
H    2.928754   0.089630  -0.795310
H    7.874054   2.523087   1.036042
H    5.112370   2.814142  -4.051082
H    8.415480   3.121998  -3.389394
H    6.600398   7.626500  -3.658207

