%chk=mol_4120.chk
# wB97XD/Def2SVP opt freq pop=full gfinput

C 4 H 10 N 2 O 1

1 2
C    0.97540963   0.05880998  -0.16638993
C    2.46975899  -0.04546998   0.00661000
N    2.92792892  -0.01849999   1.42566943
C    3.31250858  -0.83000970  -0.99237961
N    2.70036888  -1.59828937  -2.08060932
C    3.33227873   0.67637974  -1.01521969
O    4.50387812   1.31238949  -0.46442983
H    0.68052971   0.19542994  -1.21147966
H    0.58624983   0.91508967   0.39646986
H    0.48690981  -0.84715968   0.20865993
H    3.85619855  -0.44079983   1.50002944
H    2.32536912  -0.61601979   1.99422920
H    4.22056818  -1.29854953  -0.61674976
H    1.97114921  -1.07317960  -2.56079888
H    2.26268935  -2.44566894  -1.72237933
H    2.84636903   1.17743957  -1.84448934
H    4.32454872   1.53242946   0.47010982

