%chk=mol_5697.chk
# wB97XD/Def2SVP opt freq pop=full gfinput

C 5 H 3 N 1 O 1

1 2
N    0.84529972   0.07914997  -0.10170996
C    2.00431919   0.03972999  -0.06996997
C    3.53606868  -0.02028999  -0.02282999
C    4.73537827  -0.06754998   0.01380000
C    6.16290760  -0.11843996   0.05829998
C    6.92168713  -0.79944974  -1.04883957
O    6.78219748   0.62527978  -1.00015962
H    6.63072777  -0.06864998   1.03472960
H    6.37487793  -1.32999945  -1.81842923
H    7.89644670  -1.21343958  -0.82286972

