%chk=mol_4070.chk
# wB97XD/Def2SVP opt freq pop=full gfinput

C 5 H 9 N 1 O 1

1 2
C    0.97667962   0.01621999   0.01805999
C    2.49497914  -0.00550000  -0.05046998
C    3.10322881  -1.22194958   0.61001980
O    3.29927874  -0.84071970   1.97703934
N    3.50672889   0.56097978   1.99833918
C    3.07524896   1.01486969   0.86592966
C    3.10212874   2.46584892   0.52007979
H    0.55228978  -0.81126970  -0.55968976
H    0.58479977   0.95305967  -0.39237985
H    0.61273980  -0.06560998   1.04839957
H    2.84329891   0.11805996  -1.07919955
H    4.08288860  -1.46562946   0.18348993
H    2.46666908  -2.11006927   0.56133980
H    2.77570891   2.61942911  -0.51095980
H    4.11949825   2.84833908   0.63420975
H    2.43556905   3.01043892   1.19343960

