%chk=mol_4749.chk
# wB97XD/Def2SVP opt freq pop=full gfinput

C 4 H 10 N 2 O 1

1 2
C    2.63803911  -0.66686976  -1.44457948
C    2.56840897  -0.12002995  -0.03034999
N    3.18905878   1.17889965   0.06767998
C    4.54098797   1.35635948   0.26052991
O    5.33366823   0.44029981   0.45649984
C    4.96652842   2.82894897   0.25947991
N    4.03079844   3.65229869  -0.53929979
H    2.14894915  -1.64404929  -1.50052953
H    3.67597866  -0.78322965  -1.77319932
H    2.13969922   0.00779000  -2.14868927
H    3.06383872  -0.80909967   0.66169977
H    1.52544951  -0.00754000   0.28130990
H    2.67178893   2.02321911  -0.16850995
H    5.97201777   2.90699887  -0.16475993
H    4.97792816   3.18306875   1.29446948
H    4.13677835   3.38129878  -1.51904941
H    4.34643841   4.62177801  -0.49188983

