%chk=mol_1747.chk
# wB97XD/Def2SVP opt freq pop=full gfinput

C 6 H 9 N 1

1 2
C    1.39431942  -0.12178995  -0.23846991
N    2.76185894  -0.17744994   0.25660989
C    3.51045871   1.02214956  -0.13004996
C    4.94758844   0.95783961   0.34246990
C    5.43322802   1.80221927   1.26749957
C    5.83466768  -0.00011000  -0.23941991
C    6.57566738  -0.81109971  -0.72560972
H    0.86531967  -1.03580964   0.04892998
H    1.36302948  -0.04509998  -1.33026946
H    0.85077971   0.72329974   0.19608992
H    3.23000860  -0.99166960  -0.14096995
H    3.01763892   1.90752935   0.29141989
H    3.50504875   1.14178967  -1.22133958
H    4.80241823   2.55154896   1.73419929
H    6.46849775   1.75715935   1.59187949
H    7.23446751  -1.53228939  -1.14985955

