%chk=mol_1791.chk
# wB97XD/Def2SVP opt pop=full gfinput

C 5 H 14 N 2

1 2
C    1.915237  -0.133471  -0.084868
N    4.663882  -0.019200  -0.024510
C    5.557080   2.599054  -0.014249
C    8.449779   2.658316  -0.010942
C    9.422401   5.382280   0.021770
N   12.188034   5.397965   0.008693
C   13.169332   7.968843   0.032163
H    1.308446  -2.110068  -0.063419
H    1.157230   0.746725  -1.796374
H    1.091147   0.788148   1.573499
H    5.379049  -0.944636  -1.555679
H    4.847072   3.577271   1.669252
H    4.849019   3.601289  -1.685125
H    9.169386   1.677737  -1.691059
H    9.167836   1.640566   1.647425
H    8.720122   6.340693   1.719726
H    8.696274   6.396288  -1.633819
H   12.835757   4.478481  -1.555641
H   12.579737   8.978089   1.739361
H   12.552166   9.033117  -1.631627
H   15.236672   7.917348   0.023640

