%chk=mol_6190.chk
# wB97XD/Def2SVP opt freq pop=full gfinput

C 5 H 9 N 1 O 1

1 2
O    1.91832924  -0.28070989   0.82477969
C    2.89458871  -0.09688996  -0.20088992
C    2.33159924  -0.49189982  -1.54088938
C    1.08955956  -0.92025965  -1.79718924
C    3.43173862   1.31535947  -0.15618995
C    2.57261920   2.49310899   0.23784991
N    3.59373856   1.97673929   1.14928949
H    2.25697923   0.24526991   1.57588935
H    3.72081852  -0.78030968   0.02849999
H    3.03225899  -0.43572986  -2.37276912
H    0.34857985  -1.01271963  -1.00800967
H    0.78847969  -1.19938958  -2.80305886
H    4.22626829   1.47834945  -0.87654966
H    1.54326952   2.32087922   0.52724981
H    2.76908898   3.45746875  -0.21614993
H    4.42034817   2.58175921   1.14333951

