%chk=mol_2466.chk
# wB97XD/Def2SVP opt freq pop=full gfinput

C 5 H 10 O 2

1 2
C    0.86600965   0.20867993  -0.27204990
C    2.31608915   0.08134997   0.12222996
C    2.57710910   0.12863995   1.60922933
O    2.01069927  -1.01943958   2.23360896
C    3.20581865  -0.80847973  -0.71965975
C    3.33502865   0.68194979  -0.82539970
O    4.51179838   1.24877954  -0.23469992
H    0.74114972   0.26131991  -1.35905945
H    0.43269983   1.11648965   0.15790994
H    0.29182991  -0.65208977   0.08254997
H    2.14230943   1.02787960   2.05732918
H    3.64637876   0.12290995   1.84267926
H    1.04605961  -0.92263967   2.18560910
H    2.76238894  -1.34304953  -1.55202937
H    3.99148846  -1.36350942  -0.21771991
H    2.96933889   1.14926958  -1.73549938
H    5.29086828   1.10157967  -0.79891968

