%chk=mol_4525.chk
# wB97XD/Def2SVP opt pop=full gfinput

C 5 H 7 N 1 O 1

1 2
C    1.883301  -0.104766   0.041064
C    4.762110   0.000000   0.000000
C    5.737567  -1.488008  -2.238626
N    5.484514  -0.718342  -4.549308
O    6.540814  -2.519099  -6.172526
C    5.672996   2.572238   0.000000
C    6.423746   4.692322   0.000000
H    1.130340   0.818743   1.734976
H    1.215245  -2.064771   0.029612
H    1.059702   0.842364  -1.607798
H    5.468773  -0.967937   1.691853
H    6.635698  -3.324576  -1.807844
H    6.322249  -1.732879  -7.825488
H    7.094485   6.591138  -0.018255

