%chk=mol_6399.chk
# wB97XD/Def2SVP opt freq pop=full gfinput

C 4 H 8 N 2 O 1

1 2
O    1.39531946   0.93876964   1.64583933
N    2.54253888   1.59692931   1.18912959
C    3.48696876   0.73162967   1.02537966
N    4.75556803   0.98523962   0.58240974
C    5.09176826   2.25556922  -0.01760999
C    6.55895758   2.23340917  -0.32131988
C    7.08398724   2.32056928  -1.55093944
H    0.76056969   1.67256927   1.74003923
H    3.33227873  -0.34088987   1.24227953
H    5.25387812   0.18999994   0.19919991
H    4.88169813   3.07876897   0.67419976
H    4.49993849   2.41189909  -0.92675966
H    7.22601748   2.15758920   0.53422982
H    6.45959759   2.41169930  -2.43485904
H    8.16026688   2.30904913  -1.69757938

