%chk=mol_7146.chk
# wB97XD/Def2SVP opt freq pop=full gfinput

C 6 H 11 N 1

1 2
C    0.99999964   0.00000000   0.00000000
C    2.44399905   0.00000000   0.00000000
C    3.63415861   0.00000000   0.00000000
C    5.07815790   0.00000000   0.00000000
C    5.60654783  -0.81613964  -1.18199956
C    5.61238766   1.44879937  -0.02062999
N    7.06963730   1.52911937   0.11024995
H    0.60601974   1.02087963   0.01158000
H    0.60593975  -0.52047980   0.87827963
H    0.60601974  -0.50035977  -0.88992965
H    5.42630816  -0.48277983   0.92278969
H    5.31778812  -0.36677986  -2.13959932
H    5.20613813  -1.83679938  -1.16337955
H    6.69877720  -0.89145964  -1.15876961
H    5.16122818   2.02338934   0.79801971
H    5.31794786   1.94478929  -0.95376962
H    7.35102749   1.14451957   1.01157963
H    7.34906721   2.50962901   0.12125996

