%chk=mol_6531.chk
# wB97XD/Def2SVP opt pop=full gfinput

C 5 H 10 N 2

1 2
C    1.809866  -0.003836   0.209552
C    4.670061  -0.022544   0.035395
C    5.898308   2.199887   1.463007
C    8.403858   1.143379   2.448027
N    7.757288  -1.459473   2.942455
C    5.887990  -2.252535   1.361113
N    5.368032  -4.584173   0.926986
H    0.995942  -1.562029  -0.882332
H    1.039652   1.766346  -0.534755
H    1.167000  -0.222610   2.165607
H    5.283372  -0.033637  -1.942582
H    4.716548   2.776499   3.067611
H    6.170485   3.856251   0.255340
H    9.877844   1.254022   0.998720
H    9.045439   2.117325   4.153902
H    9.132234  -2.740632   3.310536
H    3.944444  -4.730117  -0.375073

