%chk=mol_3858.chk
# wB97XD/Def2SVP opt pop=full gfinput

C 4 H 4 N 2 O 1

1 2
C    4.050855   0.840985   1.319388
N    3.630788   0.574704  -1.392464
C    5.664738   2.050542  -1.876914
N    6.451922   3.886959  -3.370723
O    7.642147   5.588525  -1.658669
C    7.192128   4.787432   0.791757
C    6.121125   2.482306   0.606545
H    4.573269  -0.966028   2.180404
H    2.497103   1.709616   2.364765
H    3.791206  -1.244574  -1.984949
H    7.543617   6.173017   2.245826

