%chk=mol_1234.chk
# wB97XD/Def2SVP opt freq pop=full gfinput

C 5 H 12 N 2

1 2
C    3.07867885  -0.91515970  -0.77826971
C    2.66929913   0.01054000   0.36013985
C    3.06556892   1.46972942   0.10538996
C    2.49010921   2.38401914   1.18343949
C    4.57104826   1.61297941   0.12012995
N    5.19749832   2.06406927  -0.91952968
N    6.53568745   2.12723899  -0.73953974
H    2.72645903  -1.93264925  -0.58066982
H    4.16661835  -0.95448959  -0.89036965
H    2.64551902  -0.58515978  -1.72786939
H    3.12125874  -0.35207987   1.29155946
H    1.58157945  -0.05571998   0.48423982
H    2.68539906   1.79289925  -0.87144965
H    2.85417891   2.10722923   2.17928910
H    1.39636958   2.33547926   1.19410956
H    2.78102899   3.42519879   1.00546956
H    5.09691811   1.31453955   1.04710960
H    6.98612738   2.28278923  -1.64567935
H    6.78480768   2.95245886  -0.18774994

