%chk=mol_5369.chk
# wB97XD/Def2SVP opt pop=full gfinput

C 4 H 9 N 1 O 2

1 2
C    5.119665  -1.602280  -1.358127
O    4.689053   0.077384   0.698159
C    5.583460   2.568894   0.202541
C    4.552691   4.294762   2.258601
C    8.446924   2.672092   0.276996
N    9.731466   3.432291  -1.661334
O   12.307465   3.326428  -1.071853
H    4.236369  -3.414754  -0.904895
H    7.143429  -1.917259  -1.634727
H    4.264488  -0.872241  -3.094615
H    4.896299   3.221511  -1.640774
H    5.154871   3.659889   4.136232
H    2.483006   4.271178   2.254084
H    5.196123   6.244203   2.000124
H    9.370755   2.062957   2.046365
H   13.097899   3.923676  -2.625548

