%chk=mol_2953.chk
# wB97XD/Def2SVP opt pop=full gfinput

C 6 H 10 O 1

1 2
C    5.337569  -1.595193  -2.179913
C    4.671346  -0.005631   0.126876
C    5.720938   2.707637   0.000000
C    4.706476   4.254624   2.245221
O    5.228910   6.885009   1.946928
C    8.449702   2.707637   0.000000
C   10.698779   2.707637   0.000000
H    4.420391  -3.445953  -2.053395
H    7.376471  -1.917807  -2.320829
H    4.698804  -0.682645  -3.922467
H    5.360832  -0.967143   1.829538
H    2.605857   0.069788   0.275730
H    5.058022   3.604766  -1.749206
H    5.518567   3.631997   4.046187
H    2.649207   4.070035   2.381017
H    7.058146   7.062360   1.836908
H   12.713378   2.698056  -0.009694

