%chk=mol_1740.chk
# wB97XD/Def2SVP opt pop=full gfinput

C 6 H 11 N 1

1 2
C    2.080891  -0.534169   0.964100
N    4.805404  -0.125591   0.962305
C    5.524954   2.527471   0.455216
C    4.624897   4.291114   2.574979
C    8.432846   2.663701   0.164293
C    9.305692   5.144231  -0.760029
C   10.036109   7.159813  -1.498080
H    1.700508  -2.562828   1.109194
H    1.201393   0.148325  -0.779059
H    1.171838   0.358878   2.591079
H    5.581439  -1.251887  -0.397939
H    4.658893   3.131768  -1.331482
H    5.354539   3.687442   4.416120
H    2.560484   4.353494   2.688891
H    5.252361   6.236228   2.252932
H    9.064676   1.222124  -1.187372
H    9.353105   2.228724   1.970625
H   10.692241   8.953201  -2.142968

