%chk=mol_5177.chk
# wB97XD/Def2SVP opt pop=full gfinput

C 4 H 8 N 2 O 1

1 2
C    1.115562   4.438097  -0.072339
N    3.848654   4.801756  -0.194925
C    5.085801   2.713420  -0.140860
N    7.641542   2.514678  -0.249822
C    9.306127   4.688278  -0.265336
C   12.037385   3.838695  -0.341171
O   12.714852   1.618229  -0.229923
H    0.177842   6.251592  -0.402360
H    0.541293   3.758098   1.795807
H    0.451097   3.119522  -1.523932
H    4.153958   0.848204  -0.003439
H    8.499383   0.807820  -0.018633
H    9.043795   5.827008   1.441275
H    8.955941   5.858019  -1.934286
H   13.438768   5.376554  -0.472432

