%chk=mol_4477.chk
# wB97XD/Def2SVP opt freq pop=full gfinput

C 5 H 11 N 1 O 1

1 2
C    2.01613927  -1.15277958  -0.54554975
C    3.10259891  -0.86369967   0.48303983
C    3.75342846   0.51468980   0.29854989
N    4.63626862   0.76967973   1.45702946
C    5.09298801   2.15406919   1.51154947
C    4.55490828   0.53020978  -1.00468957
O    5.76609802   0.33659989  -1.08312953
H    1.55404949  -2.12369919  -0.33942986
H    2.42192912  -1.18772960  -1.56091940
H    1.23161960  -0.39038986  -0.51174980
H    3.86077857  -1.65541935   0.42476985
H    2.64946890  -0.92690969   1.48062944
H    2.97940898   1.28921950   0.24185991
H    5.45855808   0.16566993   1.36356950
H    4.24990845   2.85191894   1.53565943
H    5.74179792   2.40783906   0.66765976
H    5.66977787   2.30599904   2.42932916
H    3.95516872   0.69269973  -1.91728926

