%chk=mol_6785.chk
# wB97XD/Def2SVP opt freq pop=full gfinput

C 5 H 12 N 2

1 2
C    0.92105961  -0.05223998   0.00037000
C    2.43913913  -0.01628999   0.05166998
C    3.19573879   1.06745970   0.87697971
N    2.42608905   1.48716938   2.05006933
C    4.19919825  -0.03263999   1.29889953
C    3.12605882  -1.08675957   0.94362968
N    3.71463871  -2.12738919   0.10662996
H    0.58042979  -0.91389966  -0.58303976
H    0.53131980   0.85161972  -0.47892982
H    0.47491983  -0.13104995   0.99665964
H    2.81273890  -0.01036000  -0.98564965
H    3.61728883   1.89607930   0.30220988
H    2.07879925   0.73662972   2.64435887
H    1.62239945   2.07291913   1.82896924
H    5.09657812  -0.04069998   0.66578972
H    4.52994823  -0.02903999   2.34274912
H    2.54077888  -1.45036948   1.79447937
H    4.29510832  -1.78835928  -0.66076976
H    3.02701879  -2.75218892  -0.31444988

