%chk=mol_5804.chk
# wB97XD/Def2SVP opt pop=full gfinput

C 6 H 9 N 1

1 2
C    2.037219  -0.246364   0.126423
C    4.798638   0.248801  -0.015609
C    5.941715   2.491491   0.397220
C    8.769312   2.197940   0.136193
C    9.173127  -0.576744  -0.449396
N    8.432638  -2.570557   1.304894
C    6.591157  -1.808487  -0.588593
H    1.670102  -2.141268   0.870124
H    1.186918  -0.109434  -1.752060
H    1.094227   1.104110   1.373453
H    5.006999   4.245100   0.860525
H    9.464561   3.374144  -1.413062
H    9.732430   2.731807   1.885814
H   10.586208  -1.005523  -1.864007
H    7.957051  -1.838987   3.029118
H    6.191536  -3.079989  -2.139265

