%chk=mol_2692.chk
# wB97XD/Def2SVP opt freq pop=full gfinput

C 6 H 10 O 1

1 2
C    2.36514902   3.41636872  -0.43585983
C    2.81468892   2.17981911  -0.68039978
C    3.23642874   1.20893955   0.38768986
C    4.70659828   0.85681969   0.19931993
C    5.75237751   1.90526938   0.61269981
C    6.32801723   0.78883970   1.47685945
O    5.16267776  -0.04045999   1.25239956
H    2.06153917   4.06794882  -1.24977958
H    2.28526902   3.80584860   0.57553977
H    2.86422873   1.83094931  -1.71055925
H    2.62247896   0.30505988   0.29931989
H    3.06109881   1.61985934   1.38962948
H    4.90947819   0.39978984  -0.77859974
H    5.36854792   2.75767899   1.18060958
H    6.40459728   2.25597930  -0.19068994
H    7.23342752   0.31205988   1.08989954
H    6.45609760   1.03401959   2.53446889

