%chk=mol_5150.chk
# wB97XD/Def2SVP opt freq pop=full gfinput

C 4 H 7 N 1 O 2

1 2
C    0.99251968  -0.15411994  -0.39917985
N    2.31860924   0.00726000   0.17707993
C    3.08134866  -1.20549965   0.40552983
C    2.97701883   1.23281956   0.26253989
O    4.10882854   1.39748955   0.70645970
C    2.24274921   2.47922897  -0.19377992
O    1.70556927   2.55968904  -1.28646958
H    0.37912986   0.73725969  -0.25027990
H    0.48832983  -0.99551964   0.08657996
H    1.09642959  -0.35640988  -1.46925950
H    2.49580908  -1.88436925   1.03228962
H    4.03344870  -1.00038958   0.90197968
H    3.28164887  -1.67934930  -0.56012982
H    2.25987911   3.29715896   0.54570979

