%chk=mol_2856.chk
# wB97XD/Def2SVP opt pop=full gfinput

C 6 H 12 O 1

1 2
C    1.854974  -0.632208   0.496998
C    4.711976  -0.594073   0.180393
C    5.703420   2.103341  -0.115481
C    8.527163   2.139019  -0.421692
C    9.716141   3.081935  -2.454906
C   12.517395   3.157940  -2.773551
O   13.154856   1.761962  -4.970150
H    1.184896  -2.576131   0.716905
H    0.916706   0.187744  -1.153376
H    1.281140   0.438530   2.170558
H    5.225811  -1.727795  -1.477577
H    5.586692  -1.497495   1.828934
H    5.212790   3.217996   1.559685
H    4.780705   3.010447  -1.734258
H    9.626000   1.367765   1.139524
H    8.622386   3.874128  -4.004065
H   13.524978   2.347134  -1.159460
H   13.156349   5.108572  -3.027700
H   12.383810   0.104804  -4.781234

