%chk=mol_5398.chk
# wB97XD/Def2SVP opt pop=full gfinput

C 4 H 8 N 2 O 1

1 2
C    6.323855  -2.034574  -0.938325
O    4.951139  -0.269872   0.558433
C    5.468168   2.274493  -0.129692
C    8.066863   3.112738   0.696383
N    9.741501   3.810312  -0.945657
N   11.983623   4.485926   0.247290
C   13.646525   5.197087  -1.388646
H    5.703647  -3.936300  -0.421541
H    8.351192  -1.888403  -0.563894
H    5.943756  -1.743424  -2.949862
H    4.100574   3.469121   0.860071
H    5.210825   2.551641  -2.164795
H    8.456317   3.086206   2.746830
H   15.534474   5.794448  -0.752924
H   13.278747   5.243177  -3.440511

