%chk=mol_6179.chk
# wB97XD/Def2SVP opt freq pop=full gfinput

C 4 H 9 N 1 O 2

1 2
O    1.85446930  -0.36106986  -1.28921950
C    2.28959918   0.01114000   0.01890999
C    3.12361884   1.28668952  -0.05858998
O    4.37732840   1.01881969  -0.75031978
C    2.34139919   2.54805899  -0.50959980
N    2.98791885   3.31408882   0.58237982
C    3.26765871   2.04346919   1.28823948
H    1.65316927  -1.31185949  -1.26162958
H    2.88259912  -0.80824971   0.43995982
H    1.39755952   0.14432995   0.63972980
H    4.72432804   1.89674926  -0.97875965
H    1.25162959   2.48432899  -0.40752983
H    2.57277918   2.91641903  -1.51378953
H    3.82857847   3.81272864   0.29131988
H    4.25741816   1.99774921   1.75312936
H    2.51821899   1.79577935   2.04906917

