%chk=mol_3309.chk
# wB97XD/Def2SVP opt freq pop=full gfinput

C 7 H 12

1 2
C    2.52105904  -0.77698970  -1.45265949
C    2.78575897  -0.30318990  -0.03305999
C    3.28848886   1.11334968  -0.00749000
C    4.57198811   1.52805948   0.02221999
C    5.75230789   0.59044981  -0.01807999
C    4.83895826   2.96361876   0.07586997
C    6.04375744   3.54938865   0.11448996
H    2.12652922  -1.79814923  -1.44314945
H    3.44078875  -0.77634972  -2.04809928
H    1.78885937  -0.13615996  -1.95591927
H    3.47714877  -0.98684967   0.46886984
H    1.85428929  -0.34892988   0.54347980
H    2.49135923   1.85720932  -0.00046000
H    5.46681786  -0.45830983  -0.13260995
H    6.33746767   0.66870975   0.90410966
H    6.40169764   0.82566971  -0.86903965
H    3.96916842   3.61959863   0.08944996
H    6.97359753   2.99290895   0.10878996
H    6.12203789   4.63171864   0.15486993

