%chk=mol_5641.chk
# wB97XD/Def2SVP opt freq pop=full gfinput

C 4 H 10 N 2 O 1

1 2
N    2.69035888  -1.43300939  -0.86556965
C    1.95105922  -0.26648992  -0.38385984
C    2.90047908   0.76703972   0.15476993
C    3.58342862   0.49747983   1.46745944
N    2.61545897   0.53708982   2.56061912
C    3.51892877   1.75913942  -0.80986965
O    2.41582918   2.12163901   0.02958999
H    2.02817917  -2.07088923  -1.30637956
H    3.04720879  -1.94165933  -0.05637998
H    1.22579956  -0.57089978   0.37822986
H    1.37698948   0.14462994  -1.22259963
H    4.36185837   1.24504948   1.65878940
H    4.07668877  -0.47943980   1.45083940
H    2.15382934   1.44846952   2.53453898
H    3.11603880   0.50339985   3.44705868
H    3.32818890   1.63897932  -1.86959922
H    4.48706865   2.18511915  -0.57952976

