%chk=mol_5772.chk
# wB97XD/Def2SVP opt freq pop=full gfinput

C 4 H 12 N 2 O 1

1 2
N    2.18196917   0.87427968   1.25380957
C    1.75659931   2.19062924   0.76305968
C    2.88663888   3.23678875   0.85674965
N    4.10927820   2.76263905   0.19204992
C    5.15364790   3.80134845   0.22094992
C    6.38911724   3.34974861  -0.56299978
O    6.05830765   3.17102885  -1.94162929
H    3.08226871   0.68226975   0.80336970
H    2.42275906   0.96315968   2.24037910
H    0.88725966   2.53012919   1.33700943
H    1.43792951   2.08395934  -0.28076991
H    3.10331869   3.42657876   1.91299927
H    2.53625894   4.17199850   0.40879986
H    3.91014838   2.56188893  -0.79398972
H    5.44024801   4.01002836   1.25581956
H    4.76557827   4.72256851  -0.23185991
H    6.78189707   2.40655923  -0.16982993
H    7.17208719   4.11184835  -0.49807981
H    6.84715748   2.79171896  -2.36807919

