%chk=mol_4178.chk
# wB97XD/Def2SVP opt freq pop=full gfinput

C 5 H 11 N 1 O 1

1 2
C    1.17555964  -0.14284995  -0.17608994
C    2.62152910   0.20193993  -0.12847994
O    3.37244868  -0.21132992  -1.27551949
C    3.27685881   1.21115947  -1.06114960
C    2.47000909   1.93688917  -2.09542918
C    4.56699848   1.85469925  -0.62530982
N    5.54624748   1.79299939  -1.70461941
H    0.58173978   0.65908974   0.27319992
H    0.99187964  -1.05949962   0.39381987
H    0.81423968  -0.31243989  -1.19499958
H    3.05103898   0.04177998   0.85210967
H    1.67658937   1.31563950  -2.52126908
H    3.10002875   2.26483917  -2.92856908
H    2.00518918   2.82346892  -1.65226936
H    4.97697830   1.34844959   0.25605989
H    4.38914824   2.89917898  -0.34845987
H    5.63026810   0.81763971  -1.99658930
H    6.45981741   2.06167936  -1.34522951

