%chk=mol_4690.chk
# wB97XD/Def2SVP opt pop=full gfinput

C 5 H 11 N 1 O 1

1 2
C    3.154898  -0.350733   2.061691
C    3.964343   0.532525  -0.549192
N    5.410059   2.875974  -0.435242
C    4.070149   5.281671  -0.452797
C    3.520957   6.175020  -3.126174
C    8.013346   2.789293  -0.255907
O    9.302763   0.870994  -0.162214
H    2.100450  -2.124203   1.925083
H    1.943092   1.051047   2.981383
H    4.795596  -0.663747   3.282511
H    2.313743   0.821747  -1.762793
H    5.126789  -0.939855  -1.428066
H    5.234296   6.702689   0.503366
H    2.316880   5.082778   0.626671
H    5.268122   6.371193  -4.217434
H    2.569309   8.010776  -3.088928
H    2.300307   4.836981  -4.126103
H    8.881543   4.683025  -0.205186

