%chk=mol_2398.chk
# wB97XD/Def2SVP opt freq pop=full gfinput

C 6 H 6 O 1

1 2
C    0.92284966   0.00224000  -0.12926996
C    2.25362897   0.00739000   0.03354999
C    2.98998904   1.25957954   0.12325995
C    4.31997824   1.20026958   0.28846988
O    5.03617811   0.01791999   0.37861988
C    4.32909870  -1.16976953   0.29021990
C    2.99922872  -1.23919964   0.12504995
H    0.35921985  -0.92304963  -0.19776992
H    0.35244986   0.92335963  -0.19909993
H    2.47302914   2.20914912   0.05781998
H    4.97136784   2.05858922   0.36837986
H    4.98656845  -2.02290916   0.37130988
H    2.48943925  -2.19280910   0.06091998

