%chk=mol_0916.chk
# wB97XD/Def2SVP opt pop=full gfinput

C 4 H 8 O 2

1 2
O    5.108138  -1.489010  -2.226286
C    4.286957  -0.180790  -0.029102
C    5.493944   2.434912   0.051042
C    8.378668   2.368488   0.012189
C    9.525184   1.284995   2.387027
O    8.333957   0.750221   4.302869
H    4.282876  -3.132278  -2.200151
H    4.777549  -1.305631   1.632912
H    2.227798  -0.001096  -0.109340
H    4.818461   3.451604   1.725263
H    4.868331   3.500944  -1.613845
H    9.111825   4.294724  -0.184683
H    9.077601   1.267685  -1.593682
H   11.597098   1.052388   2.334530

