%chk=mol_1604.chk
# wB97XD/Def2SVP opt pop=full gfinput

C 5 H 12 N 2

1 2
C    1.300358   5.337286   0.632416
C    3.840094   3.998661   0.745308
N    5.887480   5.785585   0.230263
N    8.236617   4.776472   0.216714
C   10.096296   6.304504  -0.293115
C    9.820150   9.085974  -0.872071
C   12.737983   5.233559  -0.281834
H   -0.225936   4.001835   1.037308
H    0.964214   6.142064  -1.243119
H    1.194439   6.865167   2.023670
H    3.870140   2.468530  -0.650425
H    4.094092   3.156221   2.621126
H    5.750267   7.265581   1.462761
H    8.504599   9.356677  -2.442641
H   11.647724   9.891866  -1.402233
H    9.125487  10.078268   0.801395
H   12.705441   3.203539   0.096905
H   13.847705   6.178535   1.182496
H   13.617102   5.562806  -2.122389

