%chk=mol_1782.chk
# wB97XD/Def2SVP opt pop=full gfinput

C 5 H 8 N 2

1 2
C    2.206898   0.055671  -0.675388
N    4.943750  -0.231057  -0.817722
C    6.223851   2.109237  -0.058015
C    9.077356   1.922985   0.081825
C   10.417493  -0.215996  -0.238842
C   10.402225   4.221762   0.601197
N   11.458883   6.097579   1.015085
H    1.300245  -1.712999  -1.247125
H    1.534760   1.552637  -1.935609
H    1.595779   0.470504   1.257140
H    5.425234  -0.635364  -2.640117
H    5.540431   2.684450   1.814723
H    5.721713   3.612287  -1.397377
H    9.504000  -2.016527  -0.603257
H   12.467544  -0.236216  -0.111872

