%chk=mol_6912.chk
# wB97XD/Def2SVP opt freq pop=full gfinput

C 6 H 7 N 1

1 2
C    3.00328875  -1.11282957   0.46350983
C    2.39707899   0.01243000   0.06584997
C    3.01157880   1.28858948   0.04584998
C    2.47575903   2.55856919  -0.06983997
C    3.54203868   3.48964882  -0.05282998
C    4.70765781   2.76887894   0.05959998
N    4.37791824   1.43832946   0.11186996
H    2.45217919  -2.04924917   0.46028981
H    4.02542830  -1.15795946   0.81855971
H    1.35359955  -0.04118998  -0.24000990
H    1.42196941   2.79136896  -0.15308994
H    3.46597886   4.56699848  -0.12032996
H    5.74153805   3.08360887   0.10187996
H    5.04688835   0.68402976   0.17334993

