%chk=mol_6045.chk
# wB97XD/Def2SVP opt freq pop=full gfinput

C 4 H 4 N 2 O 1

1 2
O    1.03942966  -0.08028997   0.14659995
C    2.39432931   0.00296000   0.03242999
C    3.06684875   1.21718943  -0.02523999
N    4.41432858   1.29983950  -0.13985994
C    5.05553818   0.10990996  -0.19272992
C    4.38114834  -1.09980965  -0.13450994
N    3.03599882  -1.17847955  -0.02036999
H    0.67803979   0.81809974   0.17171994
H    2.54780889   2.16671920   0.01773999
H    6.13493776   0.15281995  -0.28467992
H    4.90889835  -2.04558921  -0.17830993

