%chk=mol_1475.chk
# wB97XD/Def2SVP opt pop=full gfinput

C 5 H 10 N 2

1 2
C    3.997338  -1.220593   1.890936
C    4.611537   0.435582  -0.374544
N    5.248280   2.984520   0.411053
C    7.522111   3.435484   1.878879
C    7.894747   6.288914   1.486251
N    6.363029   7.000850  -0.772312
C    4.960796   5.021040  -1.142207
H    3.409973  -3.101853   1.264038
H    2.463012  -0.402776   3.012620
H    5.639207  -1.447190   3.128460
H    2.955154   0.477402  -1.618947
H    6.171770  -0.389208  -1.459095
H    9.128625   2.384985   1.101937
H    7.288712   2.960823   3.877189
H    9.888313   6.748798   1.182515
H    7.212820   7.360729   3.122508
H    3.569428   4.848130  -2.681503

