%chk=mol_3933.chk
# wB97XD/Def2SVP opt freq pop=full gfinput

C 4 H 8 N 2 O 1

1 2
C    1.03541958  -0.04360998   0.11808996
C    2.54764891   0.02738999   0.01366999
C    3.13719869   1.20887959   0.75877970
C    4.43427849   0.59893978   1.15810955
N    5.38352776   1.30349946   1.66329944
N    4.42178822  -0.75342971   0.97348964
O    3.12423873  -1.15167964   0.61320978
H    0.65938979  -0.92684960  -0.40942985
H    0.56667984   0.84672964  -0.31180987
H    0.71540970  -0.14291996   1.16110957
H    2.84640884   0.04388998  -1.04250968
H    2.57915902   1.46453953   1.66548944
H    3.26126885   2.09478927   0.13273995
H    6.18508768   0.69949973   1.86540937
H    4.85105848  -1.32386947   1.69530940

