%chk=mol_5602.chk
# wB97XD/Def2SVP opt freq pop=full gfinput

C 4 H 6 N 2 O 1

1 2
N    0.94522965  -0.00113000  -0.03943998
C    2.24076915   0.02265999  -0.05143998
N    2.96068907   1.19067955  -0.20374992
O    4.19126844   1.16921949   0.48510981
C    5.00363827   0.10266996  -0.03979998
C    4.28587818  -1.21258950   0.03678998
C    2.94784880  -1.27549958   0.07273997
H    0.57855976   0.94440967  -0.15937994
H    2.43902922   2.03810930  -0.00745000
H    5.90436792   0.05969997   0.58052975
H    5.30739784   0.33320987  -1.06688964
H    4.87689829  -2.12060905   0.06668998
H    2.37289929  -2.18773937   0.13795994

