%chk=mol_1638.chk
# wB97XD/Def2SVP opt freq pop=full gfinput

C 5 H 12 N 2

1 2
C    1.09454954   0.02433999   0.02223999
N    2.55385900   0.01317000  -0.00207000
C    3.09717870   1.02272964   0.94298965
C    4.14256859  -0.02742999   1.36334944
C    3.08446884  -1.06058955   0.89826965
C    3.59331846  -2.27341914   0.11869995
N    4.32145834  -3.19311881   0.99790967
H    0.70656973  -0.83976966  -0.52745980
H    0.72199970   0.92323965  -0.48053980
H    0.66823971   0.00138000   1.03220963
H    2.42988896   1.32707953   1.75976932
H    3.50448871   1.92017937   0.46823984
H    5.06138802  -0.00324000   0.76541972
H    4.40237808  -0.04713998   2.42444897
H    2.40338922  -1.35369945   1.71189928
H    4.25092840  -1.97068930  -0.70472974
H    2.74527907  -2.81251907  -0.31853989
H    5.18336821  -2.74351907   1.30772948
H    4.61508846  -4.00325823   0.45137984

