%chk=mol_4474.chk
# wB97XD/Def2SVP opt freq pop=full gfinput

C 5 H 13 N 1 O 1

1 2
C    0.45449981   0.93223965  -0.43873984
C    1.64296937   0.53779978   0.42847985
C    2.83869886   1.50131941   0.31705987
N    2.48967910   2.84920907   0.78826970
C    4.03649855   0.95340961   1.12173963
C    5.30029774   1.80162930   0.98190963
O    5.13312769   3.07494879   1.59223938
H   -0.32386988   0.16423994  -0.37853986
H    0.75014973   1.03257966  -1.48768950
H    0.01046000   1.87697935  -0.11068996
H    1.96428919  -0.46709982   0.12714995
H    1.31374943   0.46031982   1.47244942
H    3.13670874   1.57711947  -0.73609972
H    2.05846930   2.77901912   1.71261930
H    1.76380944   3.24117899   0.18409993
H    4.26425838  -0.06226998   0.77649969
H    3.76237869   0.88520968   2.18226933
H    5.56338787   1.95017922  -0.06963997
H    6.14113760   1.30572951   1.47581947
H    4.24758863   3.38884878   1.30013943

