%chk=mol_2232.chk
# wB97XD/Def2SVP opt freq pop=full gfinput

C 5 H 8 O 2

1 2
C    1.82284939   0.06253997  -0.71161968
C    1.85645926  -0.08788997   0.78507972
C    0.54150981   0.02437999   0.06919997
C   -0.34842986   1.20412958   0.21498993
O   -1.67090940   0.70715976  -0.02430999
C   -1.60166943  -0.71475971   0.13793994
O   -0.25622991  -1.15606952  -0.01831999
H    2.14721918   1.00570965  -1.13310957
H    2.07208920  -0.80339974  -1.31533957
H    2.12761903  -1.05538964   1.19151962
H    2.19933915   0.75439972   1.37316942
H   -0.31396988   1.61881936   1.22772944
H   -0.13689995   1.99609923  -0.50799984
H   -2.24048924  -1.19451952  -0.60784978
H   -1.95083916  -0.97699964   1.14125955

