%chk=mol_4673.chk
# wB97XD/Def2SVP opt freq pop=full gfinput

C 5 H 11 N 1 O 1

1 2
C    0.84084970  -0.56970978  -0.06116998
C    2.31406927  -0.18501993  -0.19135992
N    2.93640900  -0.97321963  -1.26201952
C    2.45611906   1.32447946  -0.45763984
C    3.88788843   1.76428938  -0.50901979
C    4.56378841   2.08450913  -1.81562924
O    4.06541824   3.11701870  -0.95282966
H    0.37326986  -0.02848999   0.76759970
H    0.72932971  -1.64072943   0.13791995
H    0.28303987  -0.33505985  -0.97401959
H    2.82611895  -0.43166983   0.74678969
H    2.46029925  -0.78904969  -2.14516926
H    2.80218887  -1.96737933  -1.07438958
H    1.96055925   1.87703931   0.35014987
H    1.93667924   1.59501946  -1.38617957
H    4.48397827   1.42995954   0.32917988
H    4.03096867   1.90036929  -2.73948908
H    5.63693810   1.95787930  -1.87960923

