%chk=mol_0445.chk
# wB97XD/Def2SVP opt pop=full gfinput

C 4 H 10 N 2

1 2
C    4.671271  -1.539314   1.200581
C    3.327713   0.974777   0.777093
N    5.145648   3.056273   0.359502
C    3.719548   5.284317  -0.510906
N    6.710512   3.511621   2.352747
C    8.967110   4.129184   1.655721
H    3.280791  -3.059410   1.390309
H    5.813043  -1.512461   2.924616
H    5.905281  -2.001579  -0.394083
H    2.104758   1.391046   2.399348
H    2.109653   0.754794  -0.887151
H    2.666271   4.864099  -2.243048
H    5.015163   6.834913  -0.963326
H    2.398308   5.952959   0.936454
H   10.409235   4.547550   3.096278
H    9.563072   4.264828  -0.338941

