%chk=mol_1024.chk
# wB97XD/Def2SVP opt pop=full gfinput

C 4 H 7 N 1 O 1

1 2
C    1.807296   0.061359   0.654677
C    4.593754   0.042103  -0.077441
O    4.811999  -1.004711  -2.554513
C    5.720938   2.707637   0.000000
C    8.448795   2.647620  -0.036377
N   10.623171   2.599810  -0.065366
H    1.541374   0.749220   2.587318
H    1.012345  -1.845147   0.518238
H    0.708307   1.258236  -0.629695
H    5.613280  -1.216738   1.213525
H    3.658510  -0.128123  -3.686081
H    5.100919   3.679788   1.721484
H    5.033040   3.811105  -1.613127

