%chk=mol_5700.chk
# wB97XD/Def2SVP opt pop=full gfinput

C 5 H 9 N 1 O 1

1 2
N    3.877926  -1.230117  -2.190344
C    5.653135  -0.569393  -0.199706
C    5.818769   2.238664   0.007068
C    7.965328   3.572017  -0.237255
C    8.189280   6.325688  -0.043898
C    8.347109   7.508883   2.543609
O   10.460031   7.512474   0.854137
H    3.771364  -3.147396  -2.322190
H    4.584835  -0.624649  -3.877019
H    7.497451  -1.421055  -0.597531
H    4.982358  -1.341063   1.599275
H    4.057355   3.224572   0.399186
H    9.721205   2.574109  -0.625556
H    7.152443   7.350260  -1.488008
H    8.463989   6.303314   4.192490
H    7.379248   9.284489   2.852655

