%chk=mol_6182.chk
# wB97XD/Def2SVP opt pop=full gfinput

C 5 H 9 N 1 O 1

1 2
O    5.712566   5.102960  -2.826123
C    4.486814   3.910335  -1.259181
C    5.583631   1.946418   0.480709
C    8.422906   1.628698   0.208890
C   10.124170   3.705885   1.364533
C   11.765511   1.485816   2.264364
N    9.477544  -0.125024   2.148638
H    2.434156   4.219267  -1.064917
H    4.621609   0.162649   0.052893
H    5.070476   2.489506   2.413294
H    8.983833   1.095796  -1.718971
H    9.260584   4.789473   2.905303
H   11.012020   5.006848   0.029253
H   13.245639   0.927685   0.926230
H   12.593305   1.684955   4.146135
H    9.806299  -1.916277   1.520833

