%chk=mol_3157.chk
# wB97XD/Def2SVP opt freq pop=full gfinput

C 5 H 10 O 2

1 2
C    3.09053898  -1.23880947  -0.26700991
C    2.40377903   0.03951998   0.19150993
O    1.68088925  -0.21629992   1.39339948
C    3.38865876   1.13679957   0.44643983
O    3.75181866   1.90486932  -0.71131974
C    2.98456883   2.58046889   0.29444990
C    3.71416855   3.66165876   1.00550961
H    3.63774848  -1.08187962  -1.20194960
H    2.35514927  -2.03640938  -0.41740984
H    3.79962850  -1.59896946   0.48729983
H    1.67256927   0.34416988  -0.56511974
H    2.29916906  -0.60272974   2.03579926
H    4.16684818   0.87794966   1.15171957
H    1.95294917   2.82534885   0.07856997
H    4.76635838   3.40759873   1.17262959
H    3.25108862   3.84975863   1.97952926
H    3.67596865   4.58826876   0.42503983

