%chk=mol_4175.chk
# wB97XD/Def2SVP opt freq pop=full gfinput

C 4 H 6 N 2 O 1

1 2
C    1.08613956   0.16992994   0.00399000
C    2.55481887   0.01343000   0.00030000
N    3.34413862   1.09022963  -0.00578000
O    4.64080858   0.58884978  -0.00765000
N    4.64036846  -0.80125970  -0.00242000
C    3.35093880  -1.14850962   0.00287000
C    2.96681881  -2.57488918   0.00935000
H    0.57270974  -0.79538971  -0.01196000
H    0.75842977   0.73659974  -0.87384963
H    0.76045972   0.70727974   0.90078968
H    1.88138938  -2.70511913   0.03378999
H    3.38349867  -3.08046889   0.88690966
H    3.34408879  -3.07718873  -0.88769966

