%chk=mol_5352.chk
# wB97XD/Def2SVP opt pop=full gfinput

C 5 H 9 N 1 O 1

1 2
C    2.844019  -0.583812   0.695816
O    5.464219   0.000302   0.552065
C    5.878957   2.653572   0.343647
C    8.719631   3.140857   0.212972
C   10.157845   2.147882   2.516227
C    9.496308   3.539514   4.823148
N    8.964067   4.667491   6.629537
H    2.642498  -2.634751   0.841117
H    1.865311   0.057882  -1.008981
H    2.000993   0.284101   2.372608
H    5.034060   3.629087   1.962934
H    4.982603   3.354963  -1.386946
H    9.055945   5.171746  -0.025436
H    9.477487   2.186149  -1.464235
H   12.189830   2.356696   2.168272
H    9.810400   0.124476   2.782716

