%chk=mol_5488.chk
# wB97XD/Def2SVP opt pop=full gfinput

C 4 H 8 N 2 O 1

1 2
N    1.815592   0.073605  -0.478441
C    4.537648  -0.014475  -0.020711
C    6.164948  -1.516316  -1.786698
C    6.298231   1.330821  -1.816159
C    8.527786   2.652438  -0.790642
N   10.709267   2.168763  -1.766686
O   12.540204   3.619997  -0.525325
H    0.995905   1.528051   0.484129
H    0.964157  -1.533721   0.160778
H    5.072233  -0.073114   1.964881
H    5.290931  -2.433665  -3.395743
H    7.748973  -2.550790  -1.000591
H    5.457170   2.263079  -3.437846
H    8.240075   4.014723   0.762637
H   14.086680   3.132202  -1.402687

