%chk=mol_2231.chk
# wB97XD/Def2SVP opt freq pop=full gfinput

C 7 H 6

1 2
C    1.78958929  -0.63727975   1.26195943
C    2.43745923  -0.08593997   0.22361992
C    3.09792900   1.27370954   0.13146995
C    2.78816891   2.15013909   1.27927947
C    2.54166889   2.87768888   2.20376921
C    4.55082798   1.07818961  -0.04942998
C    5.73231792   0.92303967  -0.19948992
H    1.36021960  -1.63121939   1.18007946
H    1.67648935  -0.12824994   2.21393919
H    2.50205898  -0.67589974  -0.69060969
H    2.70224905   1.76048934  -0.77038974
H    2.32670927   3.52147865   3.02405906
H    6.78109741   0.78510976  -0.32621989

