%chk=mol_2719.chk
# wB97XD/Def2SVP opt freq pop=full gfinput

C 6 H 8 O 1

1 2
C    2.59270906  -1.19612956   0.68571973
C    2.20629930   0.00782000   0.24377991
C    3.04848886   1.18859959   0.09494997
C    2.49045920   2.33318901  -0.34086987
C    4.48113823   1.08716965   0.44470984
C    5.43123817   0.46585980  -0.55249977
O    5.50245810   1.85527933  -0.22356991
H    1.87361932  -2.00702929   0.75647974
H    3.60967875  -1.41814947   0.98812962
H    1.15814948   0.12466995  -0.03234999
H    1.43968952   2.41393924  -0.59400982
H    3.09453893   3.22864890  -0.45781985
H    4.65973854   0.89993966   1.49938941
H    5.06600809   0.20634992  -1.53829944
H    6.21434784  -0.17974992  -0.17675994

