%chk=mol_5919.chk
# wB97XD/Def2SVP opt freq pop=full gfinput

C 4 H 8 N 2 O 1

1 2
N    1.40025949   1.54192948   0.80121970
N    2.66233897   1.87604928   0.44322982
C    3.52112865   0.93441963   0.65056974
O    4.83848810   1.03675961   0.36235988
C    5.25987816   2.29537916  -0.17480995
C    6.73666716   2.28430915  -0.46277982
C    7.58494711   1.26191950  -0.28075987
H    0.80113971   2.36929917   0.73947972
H    0.99495965   0.87506968   0.13893995
H    3.29703879  -0.05745998   1.07817960
H    5.05016804   3.09188890   0.54895979
H    4.72374821   2.49628901  -1.11006951
H    7.13328695   3.21718884  -0.85834968
H    7.25125694   0.30603987   0.10953996
H    8.63690662   1.36290956  -0.52331978

