%chk=mol_1905.chk
# wB97XD/Def2SVP opt freq pop=full gfinput

C 5 H 10 N 2

1 2
N    1.03545964   0.03785999   0.33957988
C    2.47754908   0.00614000   0.06475998
C    2.87546897  -1.30601954  -0.64482975
C    2.70037913  -1.01237965  -2.10642910
N    3.73447871  -0.35066986  -2.88784909
C    2.69901896   0.47566983  -2.28727913
C    2.87274909   1.11108959  -0.93755966
H    0.79160970   0.91516966   0.79792970
H    0.79317975  -0.70605969   0.99399966
H    3.01009893   0.12186995   1.01445961
H    2.26432920  -2.15695906  -0.32438987
H    3.92208862  -1.55008936  -0.42789987
H    1.94603920  -1.59491944  -2.61566925
H    4.61458826  -0.28772989  -2.37627912
H    1.94275928   0.91830969  -2.92070889
H    3.91836858   1.40251946  -0.78620970
H    2.25921917   2.01268935  -0.83032972

