%chk=mol_2351.chk
# wB97XD/Def2SVP opt freq pop=full gfinput

C 6 H 8 O 1

1 2
C    1.01202965   0.02743999   0.06643997
C    2.49819899   0.00221000  -0.01305000
C    3.27593875  -1.08644962  -0.07053997
C    4.73427820  -0.77405971  -0.14531994
C    4.67966843   0.73619974  -0.12711996
O    5.67935801   1.44795942  -0.17926992
C    3.27364898   1.28359950  -0.03685999
H    0.59066975  -0.98307961   0.06217998
H    0.59417975   0.56995982  -0.78736967
H    0.68820971   0.52407980   0.98640966
H    2.90487885  -2.10377932  -0.06496998
H    5.27026796  -1.14805961   0.72925973
H    5.17367792  -1.12988961  -1.07928956
H    3.04361892   1.88111937  -0.92176962
H    3.14819884   1.85118937   0.88787967

