%chk=mol_6245.chk
# wB97XD/Def2SVP opt freq pop=full gfinput

C 5 H 7 N 1 O 1

1 2
O    2.86115885  -0.91008967  -0.69745976
C    2.20292902   0.15521994  -0.01679999
C    1.83999932  -0.21872991   1.36273944
N    1.53708935  -0.49301979   2.45298910
C    3.16275883   1.30176950   0.12365995
C    3.38294864   2.25329924  -1.03027964
C    2.67369890   2.72865915   0.20672992
H    3.19947886  -0.54113978  -1.53015947
H    1.31078947   0.43161985  -0.58884978
H    4.04085875   1.03466964   0.70653969
H    2.79416895   2.13861918  -1.93357921
H    4.39095879   2.61517906  -1.20457959
H    3.20278883   3.40582895   0.86946970
H    1.60923934   2.92575908   0.13998994

