%chk=mol_3915.chk
# wB97XD/Def2SVP opt freq pop=full gfinput

C 5 H 5 N 1 O 1

1 2
C    1.04159963   0.01248999  -0.15184994
C    2.35800910  -0.04130998   0.05363998
C    3.19392896  -1.20985949   0.19626993
C    4.44865799  -0.78199971   0.38699985
N    4.49851847   0.58763975   0.38010985
C    3.24937868   1.15673959   0.17956993
O    2.94978881   2.33132911   0.12036996
H    0.53747976   0.97093964  -0.24057992
H    0.44020984  -0.88449967  -0.23585992
H    2.85846877  -2.23301911   0.15500996
H    5.34090805  -1.37448955   0.53222978
H    5.32963800   1.14793956   0.50347984

