%chk=mol_3428.chk
# wB97XD/Def2SVP opt pop=full gfinput

C 5 H 12 O 2

1 2
C    2.762024   1.527900   4.587480
O    4.364890   3.661817   4.258517
C    5.022117   4.139067   1.671236
C    2.769923   5.194857   0.207605
C    7.282173   5.971100   1.639413
C    6.846119   8.436833   3.077646
O    6.595144   8.000421   5.715382
H    2.566456   1.182477   6.615100
H    3.584074  -0.152709   3.711403
H    0.881992   1.897134   3.815527
H    5.643006   2.368621   0.787373
H    1.851497   6.734417   1.238508
H    1.332219   3.734250  -0.071961
H    3.339051   5.874195  -1.660616
H    7.800657   6.396477  -0.320857
H    8.893203   5.002748   2.519062
H    5.164395   9.431642   2.408437
H    8.466162   9.696222   2.811629
H    5.567889   6.468438   5.897476

