%chk=mol_0586.chk
# wB97XD/Def2SVP opt freq pop=full gfinput

C 5 H 8 O 1

1 2
C    0.81466973   1.32450950  -0.62273973
C   -0.34826988   1.00362957   0.27910990
C   -1.37631953   0.01000000  -0.15214995
C   -0.70901972  -1.34262955   0.09917996
O    0.71050978  -1.11063957   0.04116999
C    0.94587964   0.26485988   0.42562985
H    0.78042966   1.01099968  -1.65945935
H    1.33807945   2.25947905  -0.46174985
H   -0.65341973   1.68761933   1.05530953
H   -2.31615925   0.09987996   0.40117985
H   -1.59730935   0.13597995  -1.21836948
H   -0.94672966  -1.71894932   1.09977961
H   -0.99654967  -2.09220910  -0.64305979
H    1.56631947   0.46268985   1.29144955

