%chk=mol_5943.chk
# wB97XD/Def2SVP opt freq pop=full gfinput

C 4 H 5 N 1 O 2

1 2
O    1.09763956   0.02628999   0.81811970
C    2.44148922   0.00763000   0.30801988
C    2.66727901   0.73788971  -0.98414963
O    4.02335835   1.11923957  -1.31877959
N    4.73245811  -0.08375996  -1.64039934
C    3.96608853  -1.10435951  -1.44456947
C    2.62940907  -0.75609970  -0.97367966
H    0.95579964   0.79547971   1.39799953
H    3.25334883  -0.00571000   1.02835965
H    1.84862924   1.27822959  -1.43979943
H    4.26315832  -2.14983916  -1.61199939
H    1.78193927  -1.24883950  -1.42661953

