%chk=mol_5127.chk
# wB97XD/Def2SVP opt freq pop=full gfinput

C 4 H 10 N 2 O 1

1 2
C    0.96794969  -0.23774990  -0.27214989
N    2.36791921  -0.06734997   0.09444997
C    2.79003882   1.32312953  -0.11076996
C    4.23808813   1.43861949   0.29509988
N    5.16116810   1.66199946  -0.58416975
O    6.40056753   1.71509933   0.07260998
C    7.41183710   1.96994925  -0.89579964
H    0.67293972  -1.27833962  -0.10837996
H    0.79740965  -0.00079000  -1.32707953
H    0.31835988   0.39031985   0.34591988
H    2.94132876  -0.66944975  -0.50008982
H    2.21253920   2.00136924   0.52692980
H    2.67729902   1.62134933  -1.15877962
H    4.46940851   1.31118953   1.36832952
H    8.37720680   2.00972939  -0.38512987
H    7.23219728   2.93148899  -1.38675952
H    7.43748713   1.16598964  -1.63780940

