%chk=mol_2538.chk
# wB97XD/Def2SVP opt freq pop=full gfinput

C 6 H 10 O 1

1 2
C    0.97108960   0.05795998  -0.04547998
C    2.48602915   0.00529000   0.08210997
O    2.84722900  -1.21444952   0.76350975
C    3.37745881  -0.88081968   2.05573916
C    3.56857872   0.58881980   2.04011917
C    3.05551887   1.09954965   0.92229968
C    3.04561901   2.52487898   0.50655979
H    0.61240983  -0.80150968  -0.62339979
H    0.63843977   0.97440964  -0.54346979
H    0.48618981  -0.00323000   0.93530965
H    2.95321894  -0.01493999  -0.90763962
H    4.32130861  -1.41600955   2.19840908
H    2.66316891  -1.18763959   2.82469893
H    4.04324818   1.14596963   2.83272910
H    2.78467894   2.62368894  -0.55339980
H    4.03263855   2.97820878   0.64583981
H    2.31266928   3.09009886   1.08833957

