%chk=mol_1417.chk
# wB97XD/Def2SVP opt pop=full gfinput

C 5 H 14 N 2

1 2
C    1.922040  -0.059885   0.338601
C    4.756800  -0.126347  -0.262993
C    5.334243  -1.916163  -2.487673
N    4.282856  -1.057226  -4.890177
C    5.737870   2.593687  -0.656774
C    8.568585   2.814747  -1.207913
N   10.098129   1.759335   0.831347
H    1.575276   1.013252   2.074069
H    1.184953  -1.971721   0.626236
H    0.833464   0.831744  -1.177847
H    5.697449  -0.919427   1.408734
H    4.581754  -3.800957  -2.067209
H    7.380212  -2.144329  -2.699587
H    2.361251  -1.050801  -4.786487
H    4.734331  -2.331941  -6.260833
H    5.302137   3.710062   1.037120
H    4.701128   3.493707  -2.210923
H    9.053167   4.815476  -1.437628
H    9.049048   1.876574  -2.987562
H    9.727876   2.709395   2.464789
H   11.959699   2.061937   0.442574

