%chk=mol_3667.chk
# wB97XD/Def2SVP opt freq pop=full gfinput

C 5 H 6 O 2

1 2
O    1.07586956   0.37436986  -0.85874969
C    2.02250934   0.28446990  -0.08060998
C    3.22072864   1.21348953  -0.07845997
C    3.81332874   1.35662949   1.32504952
O    3.47150874   2.66385913   1.83815932
C    2.99142909   3.33561873   0.73679972
C    2.83280897   2.61418891  -0.36596987
H    2.08458924  -0.57950979   0.60370982
H    3.96368861   0.81201971  -0.77357972
H    4.90884829   1.29593956   1.28935945
H    3.45751858   0.60272974   2.03500915
H    2.76552892   4.37670851   0.89805967
H    2.43579912   2.97260880  -1.30477941

