%chk=mol_2638.chk
# wB97XD/Def2SVP opt freq pop=full gfinput

C 6 H 8 O 1

1 2
C    0.80307966   0.42693982  -0.04068999
C    2.10995913   0.18282993   0.13501996
C    3.26235890   1.15174949   0.00813000
C    3.99585867   1.38544953   1.34349942
O    3.82955861   2.76798892   1.73686934
C    3.23366880   3.35520864   0.64552975
C    2.89334893   2.54563904  -0.34930986
H    0.07195997  -0.36628985   0.07913997
H    0.42340985   1.41113949  -0.29550990
H    2.39787889  -0.83590966   0.39374983
H    3.96266842   0.74575973  -0.73163974
H    5.07123804   1.20064950   1.23131955
H    3.62874866   0.74945974   2.15691924
H    3.09072900   4.42031813   0.72389972
H    2.41751909   2.84846902  -1.26949954

