%chk=mol_3947.chk
# wB97XD/Def2SVP opt freq pop=full gfinput

C 5 H 11 N 1 O 1

1 2
C    1.01742959  -0.01972999   0.00987000
C    2.53643918  -0.00081000   0.05092998
C    3.09475899   1.15321958   0.87374967
C    4.49422836   0.67226976   1.21155965
O    5.39071798   0.99953961   0.14798994
C    4.33902836  -0.84518969   1.34718955
N    3.06194878  -1.20070958   0.70996970
H    0.65375978  -0.86450970  -0.58468974
H    0.63354975   0.90092963  -0.44138983
H    0.58759975  -0.10565996   1.01375961
H    2.92671895   0.05124998  -0.97368962
H    2.51416922   1.29269946   1.79376936
H    3.09310889   2.08880925   0.30630988
H    4.87716818   1.13527966   2.12553906
H    5.14352798   0.46542984  -0.62621975
H    5.17132807  -1.38698947   0.88526964
H    4.27794838  -1.12902963   2.40218902
H    3.18129897  -1.96207929   0.04390999

