%chk=mol_5620.chk
# wB97XD/Def2SVP opt pop=full gfinput

C 4 H 2 N 2 O 1

1 2
N    1.812625  -0.247705  -0.012529
C    4.002346  -0.094127  -0.004913
C    6.661814   0.158435   0.004157
C    8.226053   2.223471   0.005159
C   10.662950   1.158119   0.016441
N   10.601251  -1.366499   0.021959
O    8.051311  -1.995721   0.014116
H    7.696099   4.193397  -0.001266
H   12.477880   2.098465   0.020919

