%chk=mol_0636.chk
# wB97XD/Def2SVP opt freq pop=full gfinput

C 5 H 8 O 1

1 2
C    0.97908962   0.00303000  -0.04900998
C    2.50247908   0.01928999  -0.01582999
C    3.08959866  -1.22251964   0.66837978
O    3.52973866  -0.84550971   1.99265921
C    3.55915880   0.53021985   1.94557929
C    3.02328873   1.09240949   0.86893964
H    0.61702979  -0.82861972  -0.66313976
H    0.58874977   0.93305963  -0.47728983
H    0.55052978  -0.10973996   0.95372963
H    2.88866878   0.11073996  -1.03631961
H    3.96808839  -1.58773947   0.12175995
H    2.37503934  -2.04852939   0.75094968
H    3.98724842   1.00654960   2.81159902
H    2.94254899   2.15292907   0.68625975

