%chk=mol_3716.chk
# wB97XD/Def2SVP opt freq pop=full gfinput

C 6 H 10 O 1

1 2
O    1.42446947  -0.04199998   0.43612984
C    2.71414900   0.27604988  -0.08573997
C    2.78634906  -0.12457995  -1.56920934
C    2.72147894  -1.61875939  -1.76104939
C    3.67365861  -2.35076904  -2.35333896
C    2.89677906   1.75627935   0.09351996
C    3.87833858   2.32285905   0.80775970
H    1.42459953   0.24826992   1.36434948
H    3.45796871  -0.28579989   0.49192983
H    3.70647860   0.27174988  -2.01705933
H    1.94177926   0.31385988  -2.11664915
H    1.82287931  -2.11135936  -1.39214945
H    4.58233833  -1.90229928  -2.74231911
H    3.55650878  -3.42484879  -2.46371913
H    2.16394925   2.39566898  -0.39582986
H    4.63343811   1.73094928   1.31571949
H    3.94586849   3.40339875   0.89600962

