%chk=mol_4573.chk
# wB97XD/Def2SVP opt freq pop=full gfinput

C 5 H 7 N 1 O 1

1 2
C    0.99698967  -0.58073980  -0.06436998
C    2.34240913   0.11791996   0.02650999
C    2.21479940   1.62683940  -0.11459996
O    1.16051960   2.21783924   0.12598996
C    3.43001890   2.38558912  -0.58731979
C    4.55181837   2.19763923   0.32760987
N    5.45070791   2.02757931   1.04061961
H    1.12512958  -1.66564941   0.00085000
H    0.50038981  -0.35022986  -1.01303959
H    0.33170989  -0.26649991   0.74648976
H    2.98890901  -0.25482991  -0.77486968
H    2.81546903  -0.10218996   0.98886961
H    3.17397881   3.44783878  -0.65978974
H    3.67878866   2.04078937  -1.59623933

