%chk=mol_4461.chk
# wB97XD/Def2SVP opt freq pop=full gfinput

C 5 H 9 N 1 O 1

1 2
C    0.95078963  -0.89877969  -1.24820960
C    1.81698930  -0.57970977  -0.27929989
C    2.46870923   0.75992972  -0.13032995
N    3.91821861   0.59130979  -0.18353993
C    4.58805799   1.89359927  -0.10546996
C    6.08387756   1.66909933  -0.14635994
O    6.78935766   1.97254932  -1.10532963
H    0.51366979  -1.89254928  -1.29483950
H    0.65927976  -0.18685992  -2.01450920
H    2.07408905  -1.32977939   0.46714982
H    2.17320919   1.18368959   0.83653969
H    2.12877941   1.44406950  -0.91704965
H    4.15270853   0.16300994  -1.08251953
H    4.35552835   2.40894914   0.83228970
H    4.30770826   2.53765917  -0.94592965
H    6.51736784   1.18795955   0.74749970

