%chk=mol_4809.chk
# wB97XD/Def2SVP opt freq pop=full gfinput

C 4 H 8 N 2 O 1

1 2
C    1.05078959   0.45327982   0.12623996
C    2.32398915  -0.37165985   0.04324998
N    2.20396924  -1.75488937  -0.01315000
O    0.97590965  -2.21175909  -0.50003982
N    3.42934871   0.31445989   0.02257999
C    4.62298822  -0.34564987   0.02162999
C    5.66650772   0.09680996  -0.68542975
H    1.28190958   1.50273943   0.33057988
H    0.41484985   0.07077998   0.92963964
H    0.51314980   0.39067987  -0.82415968
H    2.99546885  -2.20379925  -0.47101983
H    0.46056980  -2.37266898   0.31401989
H    4.74005842  -1.21611965   0.66357976
H    5.57955790   0.98594964  -1.30062950
H    6.62233734  -0.41179985  -0.65165973

