%chk=mol_1158.chk
# wB97XD/Def2SVP opt pop=full gfinput

C 4 H 4 O 1 S 1

1 2
O    1.616547   0.201048  -0.011357
C    4.127237   0.138725   0.000586
C    5.806146   2.133274   0.008976
C    8.375077   1.317989   0.021033
C    8.567282  -1.275395   0.021467
S    5.667156  -2.699342   0.007389
H    1.113086   1.966336  -0.013379
H    5.233710   4.096473   0.006614
H    9.995404   2.568894   0.028970
H   10.267090  -2.409722   0.029329

