%chk=mol_5060.chk
# wB97XD/Def2SVP opt pop=full gfinput

C 6 H 11 N 1

1 2
C    2.773003  -0.430102  -0.803512
C    5.367748   0.135059   0.188387
C    6.880058  -1.989088   1.326021
C    7.658682  -0.869690  -1.168474
C    9.566020   1.216020  -1.268857
C    8.053257   3.602933  -0.624762
N    5.882585   2.792127   0.930463
H    2.099070   1.099839  -2.021213
H    1.443581  -0.639861   0.767286
H    2.737495  -2.177305  -1.910740
H    6.074770  -3.873353   1.312377
H    8.023890  -1.608440   2.980911
H    7.428230  -1.925347  -2.897952
H   11.057997   0.890363   0.129938
H   10.437241   1.367349  -3.138325
H    9.207370   5.022401   0.338393
H    7.322462   4.453839  -2.366636
H    6.394342   2.844794   2.788026

