%chk=mol_4946.chk
# wB97XD/Def2SVP opt freq pop=full gfinput

C 4 H 9 N 1 O 2

1 2
C    0.62277979   0.79721969   0.68875974
C    1.30348957  -0.41962984   0.09465997
O    2.66980910  -0.42320985   0.51577979
N    3.30795884  -1.53891945  -0.06692997
C    3.86080861  -2.46473885   0.77236974
C    3.33798885  -2.50345898   2.18299913
O    4.71435833  -3.25225878   0.36771986
H   -0.43144983   0.83405966   0.40029985
H    1.11336958   1.71617937   0.35101989
H    0.69075972   0.78287971   1.78155935
H    1.25526953  -0.37658986  -0.99940962
H    0.80707973  -1.33256948   0.44211984
H    3.82147837  -1.36554956  -0.92439967
H    2.25343895  -2.64048886   2.17887926
H    3.59961867  -1.58034945   2.70653892
H    3.79096866  -3.34544873   2.71466899

