%chk=mol_4747.chk
# wB97XD/Def2SVP opt pop=full gfinput

C 4 H 12 N 2 O 1

1 2
C    7.753641  -2.492379   1.747562
C    6.232922  -1.181211  -0.334236
N    3.531464  -1.761017   0.025870
C    6.589022   1.725396  -0.373410
O    5.865162   2.786420   2.025031
C    9.317030   2.556611  -0.964082
N    9.495912   5.331276  -0.888171
H    9.786079  -2.234563   1.464802
H    7.403229  -4.534341   1.741572
H    7.268926  -1.775511   3.628444
H    6.808570  -1.957416  -2.165154
H    2.908780  -0.656359   1.491599
H    3.315808  -3.581050   0.611119
H    5.318256   2.541852  -1.797319
H    6.652157   4.462910   2.029112
H    9.910990   1.857393  -2.817336
H   10.622264   1.830975   0.465269
H    8.431656   6.074903  -2.316275
H   11.314339   5.848551  -1.270179

