%chk=mol_2785.chk
# wB97XD/Def2SVP opt pop=full gfinput

C 6 H 14 O 1

1 2
C    6.871838  -2.627513   3.624287
C    5.618742  -1.777004   1.162597
C    2.742257  -1.938406   1.427877
C    6.386254   0.923868   0.398014
C    9.210033   1.214395  -0.141446
C    9.841619   3.873258  -1.049705
O   12.475575   4.067220  -1.539919
H    8.921303  -2.792373   3.407441
H    6.169181  -4.486701   4.202448
H    6.489017  -1.294651   5.160445
H    6.192009  -3.083410  -0.342607
H    2.052091  -0.667565   2.908912
H    2.153532  -3.863054   1.909814
H    1.809677  -1.422284  -0.345914
H    5.830599   2.254708   1.888781
H    5.325947   1.462535  -1.301795
H    9.814330  -0.160230  -1.570060
H   10.327278   0.808349   1.554073
H    9.332582   5.293444   0.366380
H    8.834205   4.314037  -2.801292
H   13.357756   3.710269   0.032088

