%chk=mol_2651.chk
# wB97XD/Def2SVP opt freq pop=full gfinput

C 5 H 8 O 2

1 2
C    1.07331955  -0.03857999   0.26249990
C    2.41748929   0.17939992  -0.34489986
C    3.17644882   1.27524948  -0.21124992
C    2.85028911   2.53202915   0.51208979
O    3.69613862   3.49853873  -0.10260996
C    4.75863791   2.74095893  -0.67969972
O    4.38307810   1.37397945  -0.87537968
H    1.03566968  -1.02375960   0.73908973
H    0.30342990  -0.00582000  -0.51468980
H    0.82696968   0.70827973   1.02430964
H    2.79978895  -0.63541979  -0.95920968
H    3.10872865   2.46019912   1.57250941
H    1.81077933   2.84650874   0.39841986
H    5.02747822   3.18201876  -1.64330935
H    5.63017797   2.78198910  -0.01660999

