%chk=mol_6217.chk
# wB97XD/Def2SVP opt freq pop=full gfinput

C 4 H 7 N 1 O 2

1 2
O    1.21983957  -0.25355992   0.06094998
C    2.60523891   0.06806998  -0.03280999
C    2.82395911   1.54945946   0.03256999
C    1.87635934   2.49191904   0.16373993
C    4.23198843   2.01383924  -0.05711998
N    5.23493814   1.20384943  -0.17806993
O    6.41748762   1.95107937  -0.23445992
H    1.16057956  -1.22212946   0.00767000
H    2.97866893  -0.33009988  -0.98206961
H    3.12224889  -0.43000984   0.79401970
H    0.82836974   2.21323919   0.23482992
H    2.10276937   3.55189872   0.20507993
H    4.38913822   3.10734868  -0.01458999
H    7.10006714   1.25940955  -0.31927988

