%chk=mol_6741.chk
# wB97XD/Def2SVP opt freq pop=full gfinput

C 5 H 8 N 2

1 2
C    0.94691962  -0.00249000   0.03589999
C    2.46331906   0.00041000   0.10069997
C    3.00096893   0.00424000   1.52004945
C    3.04342890   1.11712956  -0.70717973
N    3.76346850   0.71306974  -1.70185947
N    3.76602864  -0.71474975  -1.69903934
C    3.04744887  -1.11743951  -0.70277971
H    0.58828980  -0.00135000  -1.00030959
H    0.52939981   0.88359970   0.52656978
H    0.53293979  -0.89200968   0.52338982
H    4.09735870   0.00228000   1.53514946
H    2.66553879  -0.88108969   2.07131910
H    2.66877913   0.89450967   2.06530929
H    2.86053896   2.17136931  -0.45880982
H    2.86829901  -2.17132926  -0.45009983

