%chk=mol_6828.chk
# wB97XD/Def2SVP opt pop=full gfinput

C 6 H 11 N 1

1 2
C    1.874098   0.160287  -0.230679
C    4.665791   0.174233   0.116086
N    6.267069  -1.368672  -1.501293
C    6.372119   1.380010  -1.833771
C    8.653189   2.727933  -0.982166
C    8.195327   5.202170   0.349732
C   11.026381   1.916768  -1.393182
H    1.053144   1.875137   0.583755
H    1.042146  -1.469564   0.733667
H    1.328818   0.076043  -2.225436
H    5.206630   0.241091   2.090585
H    5.267668  -2.172278  -2.940149
H    5.538863   2.101470  -3.563778
H    7.082127   6.466775  -0.852361
H    9.959424   6.176645   0.821369
H    7.157073   4.893106   2.112563
H   11.371503   0.141087  -2.363235
H   12.664075   2.971027  -0.755909

