%chk=mol_6332.chk
# wB97XD/Def2SVP opt freq pop=full gfinput

C 5 H 7 N 1 O 1

1 2
O    1.13216960   0.14943995   0.54075974
N    2.39482903   0.01563999  -0.04936998
C    2.98464894   1.16987956  -0.13835995
C    4.36063862   1.27927947  -0.74822968
C    4.55031824   2.75907898  -0.67480975
C    3.52324867   3.39945865  -0.10661995
C    2.41803908   2.49186921   0.32491988
H    0.79744965  -0.76666975   0.52613980
H    4.35635853   0.91468966  -1.77849936
H    5.09430838   0.74159974  -0.14260995
H    5.43817759   3.25002861  -1.05029964
H    3.48055887   4.47141838   0.03290999
H    2.28721905   2.49886894   1.40947950
H    1.48132944   2.71768904  -0.19086993

