%chk=mol_5721.chk
# wB97XD/Def2SVP opt pop=full gfinput

C 4 H 8 N 2 O 1

1 2
N    3.378887  -0.598816   2.034593
C    5.357582   0.109056   0.232436
C    5.452918   2.884705  -0.397542
C    3.734344   4.640298   0.260707
C    7.695381   3.608432  -1.948799
N    8.731688   5.900991  -1.425288
O    8.648218   2.167610  -3.486904
H    3.615500  -2.454168   2.493324
H    1.676981  -0.503347   1.139014
H    5.087332  -0.987760  -1.504052
H    7.178087  -0.454895   1.044641
H    2.093061   4.145227   1.386946
H    3.877888   6.597582  -0.328491
H    8.180681   6.958803   0.062720
H   10.355718   6.353486  -2.320735

