%chk=mol_6598.chk
# wB97XD/Def2SVP opt freq pop=full gfinput

C 4 H 6 N 2 S 1

1 2
C    2.92583895  -1.18636966   0.47721982
N    2.37398911   0.07650997   0.03362999
C    3.10103893   1.22472954   0.01421000
C    2.53021908   2.46411896  -0.17522994
S    3.76151848   3.65415859  -0.13814995
N    5.01808786   2.59754896   0.11360995
C    4.51579857   1.36460948   0.16409995
H    2.17573929  -1.97506917   0.35951987
H    3.20564890  -1.14045954   1.53453946
H    3.80027866  -1.47010946  -0.11724996
H    1.35805953   0.12222996   0.06151998
H    1.49555945   2.72848892  -0.32892987
H    5.22322798   0.56105977   0.31688988

