%chk=mol_5959.chk
# wB97XD/Def2SVP opt freq pop=full gfinput

C 5 H 9 N 1 O 1

1 2
O    1.10619950   0.02915999   0.39440984
C    2.50338912   0.02051999   0.10347996
C    2.86148906  -1.29839957  -0.60004979
C    2.61761880  -1.01460958  -2.05556917
N    3.61278868  -0.35671985  -2.88855886
C    2.60410905   0.47201982  -2.24859905
C    2.84091902   1.12207949  -0.91534960
H    0.88991970   0.89371967   0.78386974
H    3.04053903   0.14275995   1.04878962
H    2.23902917  -2.12880898  -0.25310990
H    3.91597867  -1.55072939  -0.43842983
H    1.84546936  -1.60672939  -2.52632904
H    4.51725864  -0.29387987  -2.42016912
H    1.82309926   0.90923971  -2.85404897
H    3.89069843   1.42400956  -0.82559967
H    2.20531917   2.00434923  -0.79204971

