%chk=mol_4486.chk
# wB97XD/Def2SVP opt freq pop=full gfinput

C 4 H 8 N 2 O 1

1 2
C    0.97076964   0.14043994   0.11362995
C    2.43695903  -0.07553997  -0.08493997
C    3.04176879  -1.25350952  -0.29995990
N    2.48512912  -2.50824904  -0.36223984
C    3.27194858   1.16104960  -0.06540997
N    4.56578827   1.18220961  -0.10445996
O    5.00185823   2.51232910  -0.06449997
H    0.58344978   0.83917969  -0.63559973
H    0.78084970   0.56020981   1.10700953
H    0.39110985  -0.78292972   0.02690999
H    4.11994839  -1.29120946  -0.46294984
H    1.57708943  -2.59499884   0.08492997
H    3.12618876  -3.25224876  -0.09331996
H    2.69949889   2.10529923  -0.00592000
H    5.97125769   2.41407919  -0.11190996

