%chk=mol_2340.chk
# wB97XD/Def2SVP opt freq pop=full gfinput

C 6 H 10 O 1

1 2
C    0.96168965  -0.08457997   0.33199987
C    2.43901920  -0.03327999  -0.05441998
C    2.73529887   1.28643954  -0.77850968
C    4.04133844   1.27469957  -1.56216943
C    4.39805841  -0.08109997  -2.06231928
C    3.72942853  -1.17722952  -1.69304943
O    2.68428922  -1.21790946  -0.82658970
H    0.67256975   0.77343971   0.94345963
H    0.73765969  -1.00549960   0.88241965
H    0.33377987  -0.10274996  -0.56625980
H    3.05062890  -0.10107996   0.85576969
H    2.75090885   2.10829926  -0.05277998
H    1.92213929   1.51002944  -1.47611952
H    4.86466837   1.64954937  -0.94145966
H    3.94708848   1.95931935  -2.41230917
H    5.21549797  -0.16609994  -2.76944900
H    3.94826865  -2.16405916  -2.08043909

