%chk=mol_1165.chk
# wB97XD/Def2SVP opt pop=full gfinput

C 6 H 12

1 2
C    1.735109   0.120924  -0.045013
C    4.571758  -0.312013   0.121434
C    6.034878   2.162848  -0.190125
C    8.862098   1.799567   0.012075
C   10.153857   0.551328  -2.187736
C   10.166916   2.612471   2.032098
H    0.722329  -1.666474   0.199687
H    1.212675   0.906539  -1.887345
H    1.093925   1.427839   1.424702
H    5.123690  -1.668156  -1.342140
H    5.019169  -1.172764   1.951501
H    5.388327   3.516043   1.245254
H    5.594666   3.025376  -2.024256
H    9.479622  -1.387815  -2.428714
H   12.206629   0.471014  -1.936365
H    9.778633   1.601959  -3.929818
H    9.237359   3.535035   3.612060
H   12.200469   2.373931   2.164984

