%chk=mol_4329.chk
# wB97XD/Def2SVP opt pop=full gfinput

C 5 H 7 N 1 O 1

1 2
C    1.877821  -0.122927  -0.090253
C    4.758482  -0.012189  -0.049549
C    5.833982  -1.471492  -2.176719
C    6.706922  -2.671733  -3.894480
C    5.648429   2.732412  -0.079595
N    5.206933   4.076838  -2.240762
O    6.616971   3.769059   1.757370
H    1.076709   0.991577   1.459681
H    1.210370  -2.072841   0.109680
H    1.102617   0.622740  -1.860757
H    5.429504  -0.847372   1.725792
H    7.489930  -3.748971  -5.406204
H    4.814172   3.201593  -3.893573
H    5.909684   5.853616  -2.306713

