%chk=mol_4230.chk
# wB97XD/Def2SVP opt freq pop=full gfinput

C 5 H 5 N 1 O 1

1 2
C    0.99999964   0.00000000   0.00000000
C    2.19015908   0.00000000   0.00000000
C    3.63415861   0.00000000   0.00000000
C    4.22141838  -1.19967961  -0.70520973
C    4.51690817  -0.57215983  -2.01056910
N    4.50042868   0.71512973  -2.03175926
O    4.13571835   1.13785958  -0.72617972
H   -0.06576997   0.01330999  -0.00573000
H    4.00884867   0.05999998   1.02733958
H    3.55263877  -2.05749917  -0.80540973
H    5.16991758  -1.52225935  -0.26502991
H    4.78750849  -1.18614960  -2.88080907

