%chk=mol_4245.chk
# wB97XD/Def2SVP opt freq pop=full gfinput

C 5 H 3 N 1 O 1

1 2
C    0.97449958  -0.06708997  -0.00153000
C    2.17295933   0.00378000   0.00056000
C    3.58216882   0.08650997   0.00301000
C    4.46423817   1.13658953   0.00076000
N    5.75221777   0.65654975   0.00512000
C    5.58901787  -0.64916974   0.00975000
O    4.29431820  -1.07485962   0.00883000
H   -0.08835997  -0.13536996  -0.00336000
H    4.24908829   2.19549918  -0.00368000
H    6.34976768  -1.41724944   0.01416999

