%chk=mol_2261.chk
# wB97XD/Def2SVP opt freq pop=full gfinput

C 5 H 8 O 2

1 2
C    0.84927964  -0.03177999  -0.19888993
C    2.29596925   0.00799000   0.15250994
C    3.32037878  -0.84370971  -0.54812980
O    2.98617887  -1.43086958  -1.82205927
C    2.96111894  -0.36794984  -2.78695893
O    2.99519873   0.90287966  -2.11828923
C    3.32609868   0.65009975  -0.73722976
H    0.36563987   0.89762968   0.11657995
H    0.36265987  -0.85917968   0.32631987
H    0.66268975  -0.15886994  -1.26773953
H    2.42369914   0.14266995   1.22266948
H    4.11188841  -1.29262948   0.03954998
H    3.83724856  -0.45356983  -3.43656850
H    2.04680920  -0.43978983  -3.38229871
H    4.12119865   1.22546947  -0.28015989

