%chk=mol_6540.chk
# wB97XD/Def2SVP opt pop=full gfinput

C 4 H 6 N 2 S 1

1 2
C    1.711865  -0.202957   0.051854
C    4.577011  -0.005612  -0.042802
C    5.429844   2.682032  -0.049114
N    5.779822   4.060322   1.995626
N    6.569822   6.482309   1.432582
C    6.787707   6.837369  -1.016767
S    6.049486   4.255059  -2.826917
H    1.131492  -2.187868   0.094789
H    0.842402   0.683873  -1.603830
H    0.953046   0.724672   1.739663
H    5.288758  -1.008396  -1.710221
H    5.380239  -0.961587   1.610727
H    7.385258   8.616660  -1.820732

