%chk=mol_2302.chk
# wB97XD/Def2SVP opt pop=full gfinput

C 6 H 12 O 1

1 2
C    1.887799   0.016762  -0.062531
C    4.759918   0.009638   0.072943
C    5.810719   2.115681   1.735713
C    8.500120   1.234312   2.231483
C    8.255495  -1.611029   2.646335
C    5.828898  -2.402654   1.276812
O    6.336554  -4.254700  -0.596889
H    1.208291  -1.546609  -1.234218
H    1.203170   1.784827  -0.889929
H    1.040974  -0.176859   1.815120
H    5.495191   0.221627  -1.856807
H    4.762809   2.261209   3.517593
H    5.757637   3.956897   0.797861
H    9.684015   1.600107   0.569866
H    9.359209   2.191478   3.849920
H    9.937597  -2.622316   1.994039
H    8.045868  -1.983759   4.673312
H    4.502953  -3.235060   2.631500
H    7.584926  -3.563305  -1.755140

