%chk=mol_6427.chk
# wB97XD/Def2SVP opt freq pop=full gfinput

C 4 H 6 N 2 S 1

1 2
C    0.92429966   0.04508998  -0.00664000
C    2.40675902   0.03545999   0.00062000
C    3.31058860   1.07933962   0.00175000
C    4.65030813   0.58945978   0.00691000
N    5.70010757   1.42220950   0.00476000
N    4.78715801  -0.73035973   0.01257000
S    3.28661871  -1.43043947   0.00768000
H    0.54015976   1.07070959   0.00236000
H    0.52650982  -0.46867985   0.87437969
H    0.53626978  -0.44949982  -0.90321970
H    3.03009868   2.12329912  -0.00290000
H    5.62806797   2.43017912   0.03079999
H    6.63664722   1.03701961   0.03268999

