%chk=mol_6195.chk
# wB97XD/Def2SVP opt pop=full gfinput

C 5 H 7 N 1 O 1

1 2
O    1.891087  -0.015893  -0.062493
C    4.573137   0.000000   0.000000
C    5.484023   2.572238   0.000000
C    6.234774   4.692322   0.000000
C    7.348635   7.155788   0.089157
C    7.171586   8.838495  -2.198678
N    5.710696   9.373249   0.073756
H    1.371696  -1.774680  -0.031010
H    5.267536  -1.031450  -1.652395
H    5.190228  -1.002726   1.700168
H    9.045439   7.316755   1.235465
H    6.098146   8.200032  -3.815300
H    8.737281  10.087869  -2.610260
H    6.508765  10.793776   1.107134

