%chk=mol_1607.chk
# wB97XD/Def2SVP opt pop=full gfinput

C 4 H 5 N 3

1 2
C    1.619703   0.271762  -0.059375
C    4.436775   0.089176  -0.200084
N    5.855260   1.825872   0.774674
N    8.400060   1.257915   0.417100
C    9.807774   2.990718   1.389610
C   12.470246   2.537203   1.095909
N   14.636099   2.234148   0.894653
H    0.891800  -1.385434   0.935471
H    0.854289   0.280568  -1.977674
H    1.036609   1.987935   0.929613
H    5.229949  -1.582740  -1.166282
H    9.149222   4.699560   2.375102

