%chk=mol_3883.chk
# wB97XD/Def2SVP opt freq pop=full gfinput

C 4 H 6 N 2 O 1

1 2
C    1.01163960   1.14355958  -0.28099990
O   -0.13387994   1.31318951   0.55710977
N   -1.32105947   0.86404967  -0.05887998
C   -1.39910948  -0.42755982  -0.08600996
N   -0.48823982  -1.41706955   0.20636992
C    0.88090968  -1.31438947   0.17724994
C    1.60588944  -0.21715991  -0.07310997
H    1.74011946   1.89944935   0.02997999
H    0.77224976   1.32568955  -1.33489954
H   -2.35285902  -0.86255968  -0.43012983
H   -0.83861965  -2.36905932   0.19545993
H    1.37934959  -2.26776910   0.33675990
H    2.68761897  -0.28987989  -0.11853996

