%chk=mol_4704.chk
# wB97XD/Def2SVP opt freq pop=full gfinput

C 4 H 10 N 2 O 1

1 2
C    2.35034919   0.06183998   1.69689929
C    2.46663904   0.24260992   0.19141993
N    3.02962899   1.54973936  -0.14177996
C    2.12816906   2.68899894  -0.09690996
C    4.39317799   1.74181938  -0.15350994
N    5.30687809   0.83351970  -0.04064999
O    6.56661797   1.44112945  -0.10670996
H    1.93253922  -0.92267966   1.92828929
H    1.69444931   0.81978971   2.13683939
H    3.32744861   0.14075994   2.18353915
H    1.47642946   0.13458994  -0.26741990
H    3.08323908  -0.55968976  -0.23150991
H    1.11280966   2.40707898  -0.39396983
H    2.46129918   3.47548866  -0.78236973
H    2.09043932   3.10459876   0.91512966
H    4.67002821   2.80508900  -0.27974990
H    7.16639709   0.67594975  -0.03684998

