%chk=mol_2515.chk
# wB97XD/Def2SVP opt freq pop=full gfinput

C 5 H 8 O 2

1 2
C    0.98301965   0.00949000  -0.16994993
C    2.37469912   0.43518984   0.13640995
O    3.38470864  -0.43540984  -0.37757987
C    3.30972862   0.88132972  -0.96265966
C    4.51519823   1.71125937  -0.72677970
C    4.50677824   2.61234903   0.47393984
O    5.45266819   1.67213929  -1.51662946
H    0.30028987   0.85783970  -0.06356998
H    0.66595972  -0.77304971   0.52600980
H    0.88590962  -0.38020983  -1.18838954
H    2.49084926   0.79765970   1.14781964
H    2.91956878   0.94227964  -1.97212934
H    3.56806874   3.17051888   0.51644981
H    5.32920790   3.32888865   0.39627984
H    4.63809824   2.02010918   1.38230956

