%chk=mol_6492.chk
# wB97XD/Def2SVP opt freq pop=full gfinput

C 4 H 5 N 1 O 1 S 1

1 2
C    0.85430968   0.01648999  -0.00590000
C    2.33849907   0.02115999  -0.00291000
C    3.22493887   1.07503951  -0.00352000
O    2.81710887   2.34955907  -0.00709000
N    4.55837822   0.76347971  -0.00038000
C    4.68382835  -0.54573977   0.00248000
S    3.22512889  -1.45021939   0.00147000
H    0.45183983   1.03456962   0.00318000
H    0.46591982  -0.50229985   0.87694967
H    0.47009984  -0.48522982  -0.90034968
H    3.62933850   2.88485885  -0.00677000
H    5.64926815  -1.03424966   0.00526000

