%chk=mol_4952.chk
# wB97XD/Def2SVP opt pop=full gfinput

C 4 H 7 N 1 O 2

1 2
C    5.884040  -2.586657  -0.245438
C    4.950194   0.097208  -0.375753
O    2.703480   0.585154  -0.778662
N    6.706978   1.999425  -0.026551
O    5.697033   4.479577  -0.173874
C    9.252269   1.852876   0.436016
C   10.783080   3.843230   0.745289
H    7.292661  -2.924181  -1.718857
H    4.299127  -3.879173  -0.554068
H    6.683262  -2.974145   1.620024
H    3.907311   4.130147  -0.505993
H   10.052644  -0.031861   0.553954
H   10.089947   5.771299   0.647571
H   12.783317   3.581220   1.106586

