%chk=mol_1933.chk
# wB97XD/Def2SVP opt pop=full gfinput

C 6 H 11 N 1

1 2
N    1.807410   0.125232  -0.286256
C    4.501422  -0.043672   0.285046
C    5.896361   2.388255  -0.510528
C    6.602325   2.429489  -3.305981
C    8.127127   0.095866  -4.076536
C    7.179504  -2.305693  -2.909404
C    5.533515  -2.360155  -0.984850
H    1.062328   1.656326   0.609871
H    0.911812  -1.408904   0.454914
H    4.712883  -0.259686   2.335116
H    4.756119   4.062873  -0.051401
H    7.630865   2.556100   0.622117
H    7.711122   4.137007  -3.720171
H    4.886302   2.546198  -4.452289
H   10.110507   0.339886  -3.535980
H    8.077294  -0.078972  -6.140382
H    7.862149  -4.072076  -3.708493
H    4.901685  -4.178770  -0.268341

