%chk=mol_4796.chk
# wB97XD/Def2SVP opt freq pop=full gfinput

C 5 H 7 N 1 O 1

1 2
C    0.20402992   0.46631980  -0.39688987
C    1.53320944  -0.15637994  -0.11108996
N    2.52638912   0.56046981   0.30052987
O    3.63733864  -0.28135988   0.48584980
C    4.74313831   0.50414979   0.93932968
C    5.90738773  -0.36653987   1.14537954
C    6.86106777  -1.07690954   1.31516945
H   -0.05368998   0.28510988  -1.44345951
H    0.22509991   1.54162943  -0.20418993
H   -0.55124980  -0.00612000   0.23627992
H    1.62123930  -1.24587953  -0.26872990
H    4.47168827   0.99969959   1.87813926
H    4.97173834   1.26952958   0.18930994
H    7.70460701  -1.71050930   1.46476948

