%chk=mol_5392.chk
# wB97XD/Def2SVP opt freq pop=full gfinput

C 4 H 7 N 1 O 2

1 2
C    2.93124890  -0.47163984  -0.60392976
O    2.38392901   0.81107968  -0.32383990
C    3.26466870   1.85111928  -0.10723996
C    2.61330914   3.18215895   0.11691995
O    3.20559859   4.25713825   0.13427994
C    4.61127806   1.77315927  -0.08457997
N    5.53702784   2.76424885   0.16148995
H    2.09950924  -1.16541958  -0.75878972
H    3.52371883  -0.84000969   0.23969990
H    3.52604890  -0.44992983  -1.52299941
H    1.51935947   3.12970877   0.24828991
H    5.11852789   0.82862967  -0.25461990
H    5.11164808   3.70112848   0.14496994
H    6.36381769   2.71694899  -0.42905986

