%chk=mol_4871.chk
# wB97XD/Def2SVP opt pop=full gfinput

C 4 H 10 N 2 O 1

1 2
C    1.439102   3.981483   0.364849
C    4.128598   3.960979   1.352099
O    5.733769   2.981138  -0.580864
C    8.315210   2.925655   0.168923
C    9.509574   5.504697  -0.106203
N   10.335442   6.723438   1.852687
N   11.329343   9.002447   1.263358
H    0.133547   4.689903   1.800928
H    0.852796   2.078661  -0.194056
H    1.293215   5.177320  -1.317479
H    4.249295   2.759699   3.034314
H    4.701223   5.887158   1.850401
H    9.309679   1.649977  -1.121590
H    8.523062   2.203402   2.096462
H    9.616155   6.275573  -2.043966
H   12.128338   9.781392   2.843055
H    9.951770  10.252521   0.732193

