%chk=mol_0591.chk
# wB97XD/Def2SVP opt pop=full gfinput

C 5 H 6 O 1

1 2
C    2.795642  -0.494863   0.095998
C    0.829231  -2.535181  -0.018538
C   -1.632988  -1.974594  -0.197457
O   -2.567193   0.455783  -0.291075
C   -0.854402   2.417017  -0.196626
C    1.650430   2.096991  -0.017669
H    3.874336  -0.686481   1.852555
H    4.111893  -0.727960  -1.484777
H    1.444337  -4.488686   0.046771
H   -3.140026  -3.350352  -0.287182
H   -1.796733   4.226864  -0.285708
H    2.899520   3.720058   0.048358

