%chk=mol_3168.chk
# wB97XD/Def2SVP opt pop=full gfinput

C 5 H 10 O 2

1 2
C    7.448639  -1.210937  -2.790483
C    5.758922  -0.673876  -0.527139
O    6.173357  -2.562166   1.350927
C    6.107765   1.973857   0.606130
C    8.793009   2.563697   1.308654
C    9.461595   3.565422   3.889056
O    9.833303   0.961247   3.230789
H    7.196398   0.209344  -4.272576
H    7.005007  -3.071806  -3.583393
H    9.446911  -1.275131  -2.252932
H    3.785575  -0.865079  -1.122592
H    7.746252  -2.131233   2.219257
H    4.899796   2.145330   2.283243
H    5.465372   3.398124  -0.755494
H    9.981023   3.050056  -0.282514
H    7.963854   3.999624   5.213188
H   11.129107   4.736674   4.074514

