%chk=mol_5526.chk
# wB97XD/Def2SVP opt pop=full gfinput

C 6 H 9 N 1

1 2
C    1.971438   0.015798   0.028384
C    4.487249  -0.106108   0.000265
C    6.238005  -2.320489   0.096811
C    8.672425  -0.733648  -0.073321
C    8.272484   1.348698  -2.147201
C    6.212418   2.095102  -0.144299
N    8.275905   1.457168   1.778950
H    0.837923  -1.688999   0.147474
H    0.984150   1.812002  -0.043010
H    6.031231  -3.576911  -1.529828
H    6.119009  -3.365168   1.875572
H   10.494576  -1.692117   0.018992
H    7.606091   0.709101  -3.996979
H    9.826538   2.693162  -2.414862
H    5.450499   4.007977  -0.111664
H    9.717595   2.734453   1.817274

