%chk=mol_2193.chk
# wB97XD/Def2SVP opt freq pop=full gfinput

C 6 H 10 O 1

1 2
C    0.80642968  -1.16502953   0.56248981
C   -0.39750987  -1.49055946  -0.32621989
C   -1.54893935  -0.52766979  -0.19550993
C   -1.46088946   0.76366973   0.16346994
C   -0.18562993   1.53519940   0.38345987
C    1.00539958   1.03160965  -0.43714985
O    1.65490937  -0.12664995   0.08024997
H    1.43654954  -2.05829930   0.63685977
H    0.49652982  -0.92444962   1.58636940
H   -0.77203971  -2.47782922  -0.02741999
H   -0.10257996  -1.55666935  -1.37993944
H   -2.53707910  -0.94623965  -0.37828985
H   -2.38230920   1.33268940   0.27452987
H    0.04860998   1.54566944   1.45403945
H   -0.38277987   2.57122898   0.08016997
H    1.76818931   1.81779933  -0.46382985
H    0.72368973   0.84433973  -1.48026943

