%chk=mol_6054.chk
# wB97XD/Def2SVP opt freq pop=full gfinput

C 4 H 8 N 2 O 1

1 2
O    0.99691963   0.01841999   0.11187996
C    2.41440916  -0.02563999   0.00175000
C    3.06664896   1.14607966   0.76351970
N    4.32574844   0.58386981   1.19757950
C    4.23162842  -0.76688969   1.31896949
N    5.06741858  -1.49782944   1.96323931
C    2.98271871  -1.29066944   0.66027975
H    0.64328980  -0.75187975  -0.36640987
H    2.69122887   0.01271000  -1.05865955
H    2.46007919   1.45314944   1.62276936
H    3.21485877   2.01395917   0.11456996
H    4.86848783   1.05544960   1.91211927
H    4.77927828  -2.48127913   1.93606925
H    3.22769880  -2.06087923  -0.07586997
H    2.31125927  -1.71074927   1.41532946

