%chk=mol_4393.chk
# wB97XD/Def2SVP opt freq pop=full gfinput

C 5 H 5 N 1 O 1

1 2
C    1.40570951  -0.45693985  -0.79981971
C    2.26913905  -0.00085000   0.11852995
C    3.05503893   1.28344953   0.00000000
C    2.74572897   2.23588920   1.14342952
O    1.90366936   2.05248928   2.01932931
C    4.47485828   1.02029967   0.00000000
N    5.60659790   0.81054974   0.00000000
H    0.86438972  -1.38473952  -0.63479978
H    1.20859945   0.07217997  -1.72770941
H    2.40558887  -0.57658982   1.03443968
H    2.77576900   1.81105936  -0.92018968
H    3.31033897   3.18626881   1.12342966

