%chk=mol_4440.chk
# wB97XD/Def2SVP opt pop=full gfinput

C 4 H 10 N 2 O 1

1 2
C    2.232409  -0.290186   0.225822
C    4.788623   0.918860  -0.150630
C    7.054688  -0.844141  -0.304681
C    7.582621  -1.491750  -3.056651
O    8.867370   0.523227  -4.292438
N    4.865818   3.362862  -0.439361
N    7.158491   4.416044  -0.807253
H    0.750467   1.148443   0.315320
H    2.234620  -1.366707   1.988256
H    1.839592  -1.563446  -1.351211
H    6.593576  -2.569461   0.743191
H    8.700130   0.021600   0.597191
H    5.845792  -1.894016  -4.107263
H    8.803629  -3.156561  -3.171962
H    8.123573   2.099675  -3.650573
H    6.921349   6.256713  -1.366367
H    8.096966   4.575386   0.880575

