%chk=mol_5939.chk
# wB97XD/Def2SVP opt pop=full gfinput

C 5 H 5 N 1 O 1

1 2
O    1.771354  -0.329889  -0.676031
C    3.942347   0.162687  -0.219529
C    6.417944  -1.079430   1.039123
N    6.606993   1.556530   2.206539
C    5.933305   2.451202  -0.454649
C    8.034832   1.376609  -1.961781
C    8.354101  -0.941027  -0.980919
H    6.286854  -2.685943   2.304483
H    5.249905   1.929335   3.528289
H    5.312719   4.390155  -0.691848
H    9.068701   2.271621  -3.470766
H    9.707277  -2.368980  -1.505942

