%chk=mol_3181.chk
# wB97XD/Def2SVP opt pop=full gfinput

C 6 H 4 O 1

1 2
C    1.826099  -0.059167  -0.011584
C    4.657589  -0.190239   0.002627
O    5.837591  -2.181141   0.010923
C    6.006098   2.180007   0.000378
C    7.126101   4.153203  -0.000643
C    8.552485   6.671584  -0.001115
C    9.669842   8.644231  -0.001417
H    1.164582   1.899005   0.017026
H    1.093471  -1.027576   1.660011
H    1.112576  -0.974003  -1.721049
H   10.667844  10.392435  -0.001342

