%chk=mol_1502.chk
# wB97XD/Def2SVP opt freq pop=full gfinput

C 6 H 7 N 1

1 2
C    0.98585963  -0.01677999   0.01219000
C    2.51999903   0.00000000   0.00000000
N    2.99320889  -0.66925973   1.21188951
C    3.01149893  -0.76157969  -1.16655958
C    3.41499877  -1.37975943  -2.11498904
C    3.00201893   1.36116946   0.00000000
C    3.39929867   2.48306894   0.00000000
H    0.57541978   0.46635982  -0.88400966
H    0.57980978   0.51683980   0.88092971
H    0.59179974  -1.04073954   0.03544999
H    2.70892906  -0.11909995   2.01910925
H    4.01151848  -0.65326977   1.20233953
H    3.77477860  -1.92927933  -2.95400882
H    3.75697851   3.48691869  -0.00556000

