%chk=mol_6331.chk
# wB97XD/Def2SVP opt pop=full gfinput

C 5 H 5 N 1 O 1

1 2
O    1.697654   0.063268   0.013701
N    4.330251  -0.218490  -0.004403
C    5.442317   1.950254  -0.006406
C    4.337394   4.517617   0.007257
C    6.309739   6.095879  -0.002098
C    8.642625   4.719459  -0.020976
C    8.217644   2.232976  -0.024170
H    1.120211  -1.686713   0.012850
H    2.350725   4.935284   0.021524
H    6.193218   8.133041   0.003609
H   10.480742   5.605249  -0.031067
H    9.538865   0.691507  -0.036698

