%chk=mol_3342.chk
# wB97XD/Def2SVP opt freq pop=full gfinput

C 7 H 14

1 2
C    1.74172938  -0.47394982   1.21405959
C    2.63380909  -0.17617993   0.01901999
C    3.01248884   1.27550960  -0.03657999
C    4.27363825   1.72585940   0.05147998
C    4.65223789   3.18484879  -0.01861999
C    5.31799793   3.62246871   1.28518951
C    5.58149767   3.43203878  -1.20638955
H    1.45554936  -1.53023946   1.21710944
H    0.82521969   0.12418996   1.18450952
H    2.25876927  -0.26047990   2.15524912
H    2.10415912  -0.43578985  -0.90496969
H    3.52486873  -0.81370974   0.06566998
H    2.19554925   1.98324931  -0.16887994
H    5.08868790   1.01454961   0.17972992
H    3.75209856   3.79663849  -0.16063993
H    6.24090767   3.06233883   1.47513938
H    4.64851809   3.46749854   2.13892913
H    5.57275820   4.68749809   1.25102949
H    6.51431751   2.86391902  -1.11386955
H    5.84105778   4.49374819  -1.28061950
H    5.10168791   3.13978887  -2.14730930

