%chk=mol_2653.chk
# wB97XD/Def2SVP opt freq pop=full gfinput

C 5 H 10 O 2

1 2
C    0.79948974  -0.38702986   0.53404975
C    1.98445916  -0.13867995  -0.38609985
C    2.91369891   0.93357968   0.12052996
C    3.78817868   0.61236972   1.29944944
O    3.06240869   0.79956973   2.50803900
C    3.31505871   2.06125927  -0.81208968
O    2.31327915   2.24210906   0.19313993
H    0.14078994  -1.14810956   0.10427997
H    0.21394993   0.52633977   0.67958975
H    1.12373960  -0.74082971   1.51691937
H    1.60215938   0.13042995  -1.37838960
H    2.54591894  -1.07134962  -0.51581979
H    4.66941833   1.26121950   1.33477950
H    4.14021873  -0.42299983   1.26076949
H    2.57056904   1.63444936   2.39426923
H    2.98798895   2.03436923  -1.84462929
H    4.26685858   2.55711889  -0.66523975

