%chk=mol_6881.chk
# wB97XD/Def2SVP opt pop=full gfinput

C 5 H 8 N 2

1 2
C    1.753987  -0.118486  -0.008523
C    4.547399   0.114499  -0.009486
C    6.133976   2.172108  -0.020182
N    5.414292   4.592791  -0.032371
C    8.650902   1.305933  -0.018973
C    8.558249  -1.294784  -0.008579
N    6.065170  -1.999519  -0.004006
H    0.832292   1.731688   0.016819
H    1.116035  -1.167624   1.656723
H    1.112104  -1.124878  -1.698372
H    6.671432   6.036277   0.051627
H    3.578423   5.127356   0.062550
H   10.352770   2.436065  -0.027193
H   10.043913  -2.697527  -0.006255
H    5.433775  -3.803527   0.000775

