%chk=mol_6704.chk
# wB97XD/Def2SVP opt freq pop=full gfinput

C 3 H 3 N 1 O 2 S 1

1 2
O    0.91969961  -0.07584997   0.06686997
S    2.35376930  -0.07983997   0.25536990
O    2.95793891  -0.07652997   1.56901944
C    3.03951883   1.21018958  -0.67461973
C    3.78394842   0.75785971  -1.68353939
C    3.72737861  -0.69962972  -1.60767949
N    3.03352904  -1.24194944  -0.66744977
H    2.84884906   2.23760939  -0.41645986
H    4.32846832   1.31919944  -2.42149901
H    4.28121805  -1.28199947  -2.35888910

