%chk=mol_6922.chk
# wB97XD/Def2SVP opt pop=full gfinput

C 6 H 9 N 1

1 2
C    1.889726   0.000000   0.000000
C    4.138803   0.000000   0.000000
C    6.867567   0.000000   0.000000
C    7.995790   2.126018   1.571477
C   10.620204   1.132494   2.143346
N   10.215274  -1.545588   2.687663
C    8.036363  -2.374441   1.171574
H   -0.124344   0.001720   0.006482
H    7.565689   0.185136  -1.946267
H    6.932763   2.423215   3.328866
H    8.043506   3.921314   0.544732
H   11.853855   1.346581   0.493370
H   11.489270   2.106345   3.745021
H   11.784181  -2.579401   2.268541
H    8.640055  -3.689123  -0.312825
H    6.716616  -3.389054   2.403297

