%chk=mol_1341.chk
# wB97XD/Def2SVP opt freq pop=full gfinput

C 5 H 6 N 2

1 2
C    0.99999964   0.00000000   0.00000000
C    2.44399905   0.00000000   0.00000000
C    3.63415861   0.00000000   0.00000000
C    5.06941843  -0.02734999  -0.00754000
N    5.59045792   1.10664964   0.30551988
N    6.98224735   1.03022957   0.28443989
C    7.50122690   2.16922927   0.59888977
H    0.60595977   1.02086961   0.01174000
H    0.60591978  -0.52056980   0.87822968
H    0.60590976  -0.50024980  -0.88994968
H    5.61267805  -0.95031965  -0.26233989
H    8.59569645   2.28247905   0.63016975
H    6.89763737   3.05936885   0.84462970

