%chk=mol_5614.chk
# wB97XD/Def2SVP opt pop=full gfinput

C 5 H 5 N 1 O 1

1 2
N    1.889726   0.000000   0.000000
C    4.064820   0.000000   0.000000
C    6.721775   0.000000   0.000000
C    8.148669  -2.074504  -0.034431
C   10.840470  -1.322336  -0.027023
C   10.621338   1.506395  -0.524645
O    8.062554   2.268314   0.022166
H    7.470068  -3.999511  -0.035262
H   11.699956  -1.710939   1.814043
H   11.948058  -2.264667  -1.495548
H   11.011812   1.948799  -2.510199
H   11.927592   2.599432   0.650349

