%chk=mol_6210.chk
# wB97XD/Def2SVP opt pop=full gfinput

C 5 H 5 N 1 O 1

1 2
O    1.891068   0.009335  -0.019275
C    4.573137   0.000000   0.000000
C    5.484023   2.572238   0.000000
C    6.234774   4.692322   0.000000
C    7.145659   7.264561   0.000000
C    6.044100   9.761116   0.000000
N    5.166039  11.751092   0.000000
H    1.356162  -1.746239  -0.018141
H    5.235033  -1.022965  -1.670102
H    5.211203  -1.014783   1.685352
H    8.450118   7.315224  -1.624238
H    8.450137   7.315224   1.624238

