%chk=mol_1799.chk
# wB97XD/Def2SVP opt pop=full gfinput

C 5 H 12 N 2

1 2
C    2.043625  -0.208758  -0.067369
N    4.752661   0.108206  -0.375035
C    5.755728   2.338290  -0.229677
C    4.156509   4.687674   0.239258
N    8.365251   2.613340  -0.448130
C    9.929755   0.374393  -0.842950
C    9.691630   4.849793   0.447374
H    1.621480  -2.227212   0.098833
H    1.015199   0.500966  -1.715153
H    1.339154   0.697895   1.653473
H    2.367260   4.585137  -0.785937
H    5.113070   6.399954  -0.401208
H    3.775711   4.846864   2.264515
H    9.109784  -0.873394  -2.276874
H   10.136737  -0.679281   0.925682
H   11.816779   0.888417  -1.521778
H    9.066415   5.357468   2.353352
H    9.351556   6.444438  -0.824355
H   11.738582   4.561100   0.529180

