%chk=mol_4318.chk
# wB97XD/Def2SVP opt freq pop=full gfinput

C 5 H 9 N 1 O 1

1 2
C    0.66977978  -0.79690969   1.07814956
C    1.96493924  -0.84355968   0.31448987
C    2.42487931  -1.98445916  -0.22625992
C    2.73604918   0.45434982   0.22337992
C    1.97862923   1.51471949  -0.56417978
N    1.76369941   1.22844946  -1.88236928
O    1.59947944   2.57580924  -0.07974997
H    0.84174973  -0.43401983   2.09653926
H    0.20209993  -1.78455937   1.15178955
H   -0.04447998  -0.12949996   0.58560973
H    1.87357926  -2.91679907  -0.13952994
H    3.37193871  -2.02486920  -0.75660974
H    3.71205854   0.31228986  -0.25624990
H    2.93097901   0.83937967   1.23105955
H    1.83286929   0.27826992  -2.22134900
H    1.18814957   1.87979925  -2.39956903

