%chk=mol_5546.chk
# wB97XD/Def2SVP opt pop=full gfinput

C 4 H 5 N 1 O 2

1 2
N    1.973554  -0.050191  -0.216033
C    4.484188   0.198100  -0.119676
C    6.054116   2.270222  -0.055747
C    8.522457   1.278891   0.034941
O   10.724517   2.527622   0.110209
C    8.322449  -1.304875   0.030481
O    5.840992  -1.978619  -0.062115
H    0.823202   1.411531   0.236291
H    1.233046  -1.784941   0.133490
H    5.468112   4.222291  -0.083734
H   10.423805   4.340625   0.069277
H    9.667593  -2.838954   0.079765

