%chk=mol_0396.chk
# wB97XD/Def2SVP opt pop=full gfinput

C 5 H 9 N 1

1 2
C    1.872832  -0.020390   0.144318
C    4.762110   0.000000   0.000000
C    5.642401  -1.456091  -2.371588
N    8.383581  -1.864272  -2.434534
C    5.672996   2.572238   0.000000
C    6.423746   4.692322   0.000000
H    1.206779   0.966633   1.839138
H    1.152884  -1.959608   0.220418
H    1.023778   0.913399  -1.498704
H    5.479733  -0.982147   1.680552
H    5.081133  -0.439588  -4.089519
H    4.727679  -3.313616  -2.430018
H    9.276968  -0.157282  -2.330032
H    8.873039  -2.622146  -4.136024
H    7.094259   6.591459   0.010242

