%chk=mol_4470.chk
# wB97XD/Def2SVP opt freq pop=full gfinput

C 5 H 7 N 1 O 1

1 2
C    1.01414967  -0.20489992  -0.10699996
C    2.52069902  -0.01513999   0.01517999
C    3.23827887  -0.77617973  -1.01246965
N    3.79721856  -1.36974943  -1.83803928
C    2.86141896   1.46156943  -0.05304998
C    2.95496893   2.13290930  -1.40257955
O    2.99521875   2.12084937   0.98161966
H    0.48416981   0.37674984   0.65531975
H    0.74037975  -1.25836957   0.01895999
H    0.64148980   0.11833996  -1.08575964
H    2.84323883  -0.37574986   0.99998963
H    2.06361914   1.91478932  -1.99529922
H    3.85343862   1.79932928  -1.92674923
H    3.01694870   3.21651888  -1.26439953

