%chk=mol_2987.chk
# wB97XD/Def2SVP opt freq pop=full gfinput

C 7 H 10

1 2
C    1.05670953  -0.19036993   0.12461995
C    2.56886911  -0.04341998  -0.06857998
C    3.02557874  -0.87148964  -1.27564943
C    2.95826888   1.42910957  -0.12158996
C    3.13728881   2.12656903  -1.25592947
C    3.17513871   2.11167932   1.11773956
C    3.35673881   2.68002892   2.15921926
H    0.71891969   0.32737988   1.02909958
H    0.77991974  -1.24547946   0.22561991
H    0.50330979   0.22244991  -0.72644973
H    3.06303883  -0.48635983   0.80768973
H    2.49323893  -0.59041977  -2.19068933
H    2.83459902  -1.93628931  -1.10089958
H    4.10044813  -0.75326967  -1.45078945
H    2.99382901   1.68595946  -2.23574901
H    3.42565870   3.17424870  -1.23605955
H    3.51877856   3.18525887   3.08286881

