%chk=mol_5498.chk
# wB97XD/Def2SVP opt pop=full gfinput

C 4 H 8 N 2 O 1

1 2
N    0.642488   0.467046  -0.689013
C    3.157827  -0.477137  -0.020863
C    4.593017  -2.000767  -1.930884
C    5.474612   0.618451  -1.268951
O    7.676653   0.797162   0.324428
N    9.778028   0.622495  -1.275584
C   11.795746   0.805401   0.075287
H    0.210950   2.029074   0.354607
H   -0.704943  -0.845275  -0.268776
H    3.364317  -1.045604   1.943546
H    3.782986  -2.269561  -3.791698
H    5.721977  -3.573982  -1.270822
H    5.193459   2.096216  -2.662227
H   13.663174   0.702430  -0.831687
H   11.759841   1.066165   2.143743

