%chk=mol_5199.chk
# wB97XD/Def2SVP opt freq pop=full gfinput

C 5 H 9 N 1 O 1

1 2
C    2.42036915   3.40072870   1.06128967
N    3.76705861   3.03979897   0.70620972
C    4.02969837   1.86606932   0.04445998
O    3.16614866   1.06734967  -0.29933989
C    5.48176813   1.56875932  -0.16024993
C    5.84667778   0.11472996  -0.13888995
C    6.37560749   2.54128885  -0.40563986
H    2.41303897   4.43940830   1.39933944
H    2.07704926   2.74461889   1.86550927
H    1.76379931   3.28590870   0.19404992
H    4.53280830   3.54514885   1.13213956
H    5.32365799  -0.42634985  -0.93406963
H    5.57733774  -0.33213988   0.82355970
H    6.92097712  -0.03828999  -0.28675991
H    6.09680796   3.58692884  -0.47947982
H    7.42298698   2.30611920  -0.57905978

