%chk=mol_4205.chk
# wB97XD/Def2SVP opt freq pop=full gfinput

C 6 H 11 N 1

1 2
C   -1.73182929   0.85273969   0.56732982
C   -1.18844962  -0.25977990  -0.29125988
C   -0.36970988  -1.37835956   0.27725989
C    1.07735956  -1.28599942  -0.23944990
N    1.69179940   0.05285998  -0.23719992
C    0.86988968   1.10074961   0.36094987
C   -0.49301979   1.07712960  -0.26268989
H   -2.64809895   1.33673954   0.24558990
H   -1.63359940   0.77437973   1.64388931
H   -1.70637929  -0.53033984  -1.20312953
H   -0.36940989  -1.33229947   1.37259948
H   -0.80539972  -2.34318924  -0.00211000
H    1.70523942  -1.97798932   0.33539987
H    1.09956956  -1.64043939  -1.27695954
H    2.59321904   0.01576999   0.23358990
H    0.81750971   0.96729964   1.44776940
H    1.33658946   2.07419920   0.17914993
H   -0.55615979   1.68899941  -1.15470958

