%chk=mol_5448.chk
# wB97XD/Def2SVP opt pop=full gfinput

C 6 H 11 N 1

1 2
C    2.039770   0.499114  -0.476853
C    4.781631  -0.027987  -0.121528
C    6.103305  -1.922059  -1.770957
C    6.684188   0.855970  -2.056910
N    9.130666   1.806181  -1.130831
C   11.025361   1.701339  -3.134262
C    9.850160   4.169567  -2.353465
H    1.573613   2.372589   0.264656
H    0.909053  -0.897507   0.547284
H    1.484455   0.438889  -2.469116
H    5.317311   0.048982   1.855069
H    5.049726  -2.830999  -3.272590
H    7.518559  -3.121109  -0.901021
H    5.913350   1.753779  -3.741507
H   10.504742   0.884883  -4.936966
H   12.935761   1.304591  -2.516756
H   10.970220   5.447381  -1.212996
H    8.531774   5.080945  -3.624060

