%chk=mol_4648.chk
# wB97XD/Def2SVP opt freq pop=full gfinput

C 4 H 10 N 2 O 1

1 2
C    0.94306970  -0.06822997  -0.12680995
C    2.46785903  -0.06766998  -0.20595992
C    2.93825912  -0.85484970  -1.44405949
O    4.36213827  -0.93593967  -1.47616947
N    2.95129895   1.33066952  -0.24962991
N    4.29521847   1.51468945  -0.20746991
C    4.64688826   2.75922894  -0.22340992
H    0.59426975   0.46161982   0.76654971
H    0.55948985  -1.09285951  -0.07380997
H    0.49522981   0.41406986  -1.00307965
H    2.87255907  -0.53965980   0.69803971
H    2.60165906  -0.37907988  -2.37182903
H    2.54831910  -1.87759936  -1.42511952
H    4.65102816  -0.05683998  -1.13924956
H    2.47505903   1.86379933   0.48375982
H    5.71621799   3.02056885  -0.19031993
H    3.93113852   3.59797859  -0.27645990

