%chk=mol_5947.chk
# wB97XD/Def2SVP opt pop=full gfinput

C 5 H 9 N 1 O 1

1 2
O    1.965296   0.597229  -0.743324
C    4.558548   0.118788  -0.098190
C    5.870680  -1.811548  -1.695765
C    6.497238   0.946904  -2.022933
N    8.947570   1.894998  -1.096835
C   10.886107   1.587616  -3.038623
C    9.774041   4.139294  -2.470930
H    1.405106   2.189304  -0.013833
H    5.077751   0.194094   1.884983
H    4.790815  -2.728330  -3.172812
H    7.248404  -3.020085  -0.786202
H    5.735829   1.830597  -3.718868
H   10.382306   0.660233  -4.793366
H   12.769200   1.179321  -2.347342
H   10.910542   5.462934  -1.400230
H    8.520851   4.994792  -3.842928

