%chk=mol_4095.chk
# wB97XD/Def2SVP opt pop=full gfinput

C 5 H 11 N 1 O 1

1 2
C    1.744482   0.062626  -0.282949
C    4.575820   0.038475   0.070921
N    5.407621  -0.160513   2.716481
C    6.163512  -1.249676  -1.925499
C    6.112980   1.593455  -1.777646
C    8.398604   3.047486  -1.010229
O    9.916640   3.485789  -3.186683
H    1.211919   0.196021  -2.279444
H    0.909941   1.678512   0.705416
H    0.907144  -1.671198   0.477213
H    7.241034  -0.731570   2.853902
H    4.386602  -1.505942   3.647890
H    5.210882  -2.134729  -3.510582
H    7.867478  -2.231993  -1.354499
H    5.084799   2.604080  -3.237989
H    9.560370   2.061597   0.388320
H    7.854231   4.882145  -0.227126
H   10.313048   1.836077  -3.889453

