%chk=mol_6894.chk
# wB97XD/Def2SVP opt freq pop=full gfinput

C 6 H 13 N 1

1 2
C    2.16534925  -0.92613965  -0.45976982
C    1.90130925   0.50122982  -0.00804000
C    3.16443896   1.30799949   0.04766998
C    3.49383879   2.30314898  -1.03659964
C    3.07438898   2.78996897   0.32957989
C    4.05670834   3.42499876   1.25883949
N    3.98885846   4.86464787   1.06888962
H    1.22938955  -1.49022949  -0.50771981
H    2.83606887  -1.43837941   0.23905991
H    2.63286901  -0.94566965  -1.44865954
H    1.44657946   0.48197982   0.98859966
H    1.17274952   0.96457964  -0.68496972
H    3.98124862   0.76412970   0.51044983
H    2.79407907   2.43936896  -1.85348928
H    4.53309822   2.40704918  -1.32960951
H    2.08118916   3.21451879   0.43912983
H    5.07747841   3.07263875   1.07179964
H    3.79845858   3.17808867   2.29209924
H    4.25599813   5.08684778   0.11070996
H    4.67748833   5.31267786   1.66915941

