%chk=mol_0640.chk
# wB97XD/Def2SVP opt freq pop=full gfinput

C 4 H 6 O 2

1 2
C    1.06072962   0.05972998   0.03661998
C    2.53427887   0.00318000  -0.10888996
C    3.32942867  -1.04967964  -0.14791994
O    4.65628862  -0.73295975  -0.29788989
C    4.58131838   0.70775974  -0.35822988
O    3.22828889   1.19684958  -0.23034991
H    0.62194973  -0.94259965   0.07439998
H    0.61423975   0.59254974  -0.80911970
H    0.78862971   0.58471978   0.95794964
H    3.09374881  -2.09654927  -0.08007997
H    4.98816824   1.04263961  -1.31915951
H    5.18726826   1.12818956   0.45244983

