%chk=mol_1708.chk
# wB97XD/Def2SVP opt pop=full gfinput

C 6 H 13 N 1

1 2
C    5.357563  -1.417994  -2.866696
N    4.027252   0.600593  -1.529374
C    2.294127   1.920510  -3.215860
C    5.728856   2.201663   0.044805
C    6.233829   1.111216   2.645031
C    7.875264   3.619430  -1.217551
C    5.702268   5.063124  -0.123342
H    6.528191  -2.526035  -1.567320
H    6.577513  -0.685479  -4.370653
H    4.010188  -2.744090  -3.713954
H    3.289824   2.954379  -4.708687
H    1.108494   3.248836  -2.159182
H    0.992673   0.585853  -4.120453
H    7.399185   2.373402   3.801411
H    7.229374  -0.695400   2.500580
H    4.452781   0.799430   3.649364
H    8.040936   3.571393  -3.258171
H    9.680406   3.716638  -0.251882
H    6.036012   6.144841   1.586954
H    4.458148   6.027433  -1.428652

