%chk=mol_6923.chk
# wB97XD/Def2SVP opt freq pop=full gfinput

C 6 H 7 N 1

1 2
C    0.99999964   0.00000000   0.00000000
C    2.19015908   0.00000000   0.00000000
C    3.59615874   0.00000000   0.00000000
C    4.35334826  -1.09623957  -0.06523997
C    5.79187822  -0.73302972  -0.05756998
N    5.83934784   0.73902971  -0.17375992
C    4.45530796   1.21470952   0.05827998
H   -0.06510998  -0.00262000   0.00117000
H    3.98935843  -2.11206913  -0.10633996
H    6.26564789  -1.05060959   0.87562966
H    6.32171774  -1.19598949  -0.89556962
H    6.08143759   0.96388966  -1.13891959
H    4.17831850   1.94787920  -0.70691973
H    4.39198828   1.69194937   1.04191959

