%chk=mol_2585.chk
# wB97XD/Def2SVP opt freq pop=full gfinput

C 6 H 10 O 1

1 2
C    1.70471931  -0.15688995   1.31003952
C    2.32804918   0.16776992  -0.03810998
C    3.34591889   1.26290953   0.07755998
C    3.54377866   2.23251915  -1.05642962
C    2.90300894   2.70223904   0.22826992
C    3.64423871   3.61737847   1.12768960
O    3.21113896   4.73325825   1.38216949
H    1.00265968  -0.99020964   1.21455956
H    1.15867949   0.70559973   1.70541930
H    2.47024918  -0.43257985   2.04175925
H    1.53542948   0.44109982  -0.74514973
H    2.81751895  -0.72862971  -0.43741983
H    4.23042870   0.93246967   0.61200976
H    2.90849876   2.15436935  -1.93199933
H    4.55412817   2.55632925  -1.28063953
H    1.83562934   2.89962888   0.19567993
H    4.59504795   3.24936891   1.54911935

