%chk=mol_1269.chk
# wB97XD/Def2SVP opt pop=full gfinput

C 6 H 11 N 1

1 2
C    1.848644   0.030935  -0.017952
C    4.762110   0.000000   0.000000
C    5.655894  -1.362700   2.409571
C    5.681688  -1.428312  -2.403599
N    8.428273  -1.767650  -2.572503
C    5.672996   2.572238   0.000000
C    6.423746   4.692322   0.000000
H    1.116261   0.984491  -1.704741
H    1.093925   1.032112   1.631136
H    1.079619  -1.890747   0.005556
H    4.905521  -0.446996   4.110400
H    7.719777  -1.351532   2.581460
H    5.026785  -3.335027   2.428355
H    5.053260  -0.415815  -4.101613
H    4.812169  -3.308438  -2.469967
H    9.282051  -0.041668  -2.462086
H    8.875458  -2.479585  -4.304683
H    7.094561   6.591308   0.010734

