%chk=mol_5575.chk
# wB97XD/Def2SVP opt freq pop=full gfinput

C 4 H 9 N 1 O 2

1 2
N    0.82386971   0.19450994  -0.19973992
C    2.27184916   0.09758997   0.13712995
C    2.56655884   0.08480997   1.63058937
O    1.63145936  -0.78215975   2.27494931
C    3.13707900  -0.76203972  -0.75351971
C    3.27959895   0.73087972  -0.80125970
O    4.47228861   1.26081955  -0.20617992
H    0.67634970   0.09668996  -1.20424950
H    0.48437983   1.12950957   0.03599999
H    2.44033909   1.08971953   2.04724908
H    3.57656860  -0.26725990   1.86228919
H    0.85416973  -0.78054971   1.68030930
H    2.67838907  -1.25910950  -1.59923947
H    3.92846847  -1.34142947  -0.29164991
H    2.89875889   1.24074948  -1.68029940
H    5.22639799   1.20227957  -0.81888968

