%chk=mol_1351.chk
# wB97XD/Def2SVP opt freq pop=full gfinput

C 5 H 12 N 2

1 2
C    0.74359971  -0.26883990  -0.17795993
C    2.25034928  -0.21018992   0.01704999
C    2.79700899   1.18781948  -0.27205992
C    4.31122828   1.24474943  -0.06582997
N    4.80461836   2.59621882  -0.34479988
N    6.14168787   2.76489878  -0.21277991
C    6.54216719   3.94892859  -0.53572983
H    0.37256986  -1.27709949   0.03189999
H    0.47054982  -0.01361000  -1.20712960
H    0.23335990   0.42760983   0.49557984
H    2.72766900  -0.94158959  -0.64507973
H    2.49045920  -0.49865982   1.04682958
H    2.30424929   1.91460919   0.38624987
H    2.55295897   1.47015941  -1.30409956
H    4.80336809   0.52897984  -0.73480970
H    4.55837822   0.96692961   0.96572965
H    4.28086853   3.26510882   0.22506991
H    7.61251736   4.19819832  -0.46485981
H    5.86863756   4.74773836  -0.89317966

