%chk=mol_5089.chk
# wB97XD/Def2SVP opt freq pop=full gfinput

C 5 H 11 N 1 O 1

1 2
C    1.92943931  -0.62305975   0.61305976
N    3.29806876  -0.56120980   0.11295996
C    3.82734847   0.80372971   0.21987991
C    5.27980804   0.83182967  -0.24617991
C    5.87499809   2.22181916  -0.14618994
C    7.33965731   2.34277916  -0.47730982
O    5.20872784   3.21306872   0.15142994
H    1.55661941  -1.64824939   0.52590978
H    1.26264954   0.02808999   0.03853998
H    1.88127935  -0.34413987   1.67059934
H    3.30372882  -0.85204971  -0.86471969
H    3.77394867   1.14719963   1.26046944
H    3.22545862   1.49008942  -0.38857988
H    5.35405827   0.50891984  -1.29088950
H    5.88505793   0.15891995   0.37230986
H    7.91771698   1.66537941   0.15613994
H    7.67664719   3.36662865  -0.29299989
H    7.49647713   2.09959912  -1.53104949

