%chk=mol_2638.chk
# wB97XD/Def2SVP opt pop=full gfinput

C 6 H 8 O 1

1 2
C    1.517601   0.806800  -0.076893
C    3.987247   0.345499   0.255151
C    6.164967   2.176492   0.015363
C    7.551081   2.618121   2.538847
O    7.236820   5.230743   3.282209
C    6.110751   6.340428   1.219875
C    5.467639   4.810563  -0.660100
H    0.135985  -0.692188   0.149553
H    0.800129   2.666668  -0.558433
H    4.531336  -1.579641   0.744080
H    7.488361   1.409282  -1.382599
H    9.583255   2.268900   2.326858
H    6.857344   1.416274   4.075988
H    5.840633   8.353194   1.367973
H    4.568451   5.382828  -2.399007

