%chk=mol_4665.chk
# wB97XD/Def2SVP opt freq pop=full gfinput

C 5 H 11 N 1 O 1

1 2
C    1.11641955   0.07070997   0.16464993
C    2.62610912   0.04931998  -0.07330997
N    2.91464877  -0.73181969  -1.28322947
C    3.15023875   1.49029946  -0.19529994
C    3.16437888   2.33945894   1.08679962
C    4.63715839   2.56292915   0.76069969
O    4.60698843   1.54375935  -0.26333991
H    0.87349969   0.61035979   1.08623970
H    0.71704972  -0.94493961   0.26104990
H    0.58788979   0.56911981  -0.65586978
H    3.11238885  -0.44898984   0.77327967
H    2.47671914  -0.29992989  -2.09496927
H    2.51773906  -1.66519940  -1.19848955
H    2.72149897   2.02105927  -1.05611968
H    2.99238896   1.79322934   2.01830912
H    2.53969908   3.23524880   1.05923963
H    4.88278818   3.54208875   0.33904988
H    5.33627796   2.31470919   1.56346941

