%chk=mol_1589.chk
# wB97XD/Def2SVP opt freq pop=full gfinput

C 5 H 10 N 2

1 2
C    4.26045847  -1.97133923   1.14056957
C    3.19236875  -0.99436963   0.71144974
N    1.94413936  -1.21473956   0.98693961
N    3.51187873   0.14197995   0.01834999
C    4.80916834   0.78356969   0.19592993
C    6.01952791   0.34627986  -0.57845974
C    5.36669779   1.66034937  -0.89087969
H    4.82632828  -2.29854894   0.26376989
H    3.82041860  -2.85058904   1.61880934
H    4.93892813  -1.49008942   1.84994936
H    1.83917940  -2.09571934   1.50034940
H    2.69553900   0.73996973  -0.08351997
H    4.96351814   1.13123953   1.21502948
H    5.90773773  -0.45611984  -1.29808950
H    6.97585726   0.35972986  -0.06934997
H    5.88171768   2.56714916  -0.59719980
H    4.81814814   1.74015939  -1.82222927

