%chk=mol_5984.chk
# wB97XD/Def2SVP opt freq pop=full gfinput

C 4 H 8 N 2 O 1

1 2
O    1.36729944   0.17297994   0.87299967
C    2.40956903   0.06651998   0.22815992
C    3.05419898  -1.27645957  -0.03288999
C    3.99499869  -1.26046944  -1.22551954
C    4.91048813  -0.05067998  -1.14087963
N    4.09470844   1.16262949  -1.17981958
N    3.09901881   1.18856955  -0.18137994
H    2.26598930  -2.01879930  -0.19742993
H    3.60163856  -1.55666935   0.87462968
H    4.58626795  -2.18259931  -1.24581945
H    3.41603875  -1.22809958  -2.15739918
H    5.51491785  -0.07976997  -0.22628991
H    5.59894800  -0.04696998  -1.99233925
H    4.70761824   1.97227931  -1.04955959
H    2.58405900   2.05422926  -0.02909999

