%chk=mol_0354.chk
# wB97XD/Def2SVP opt pop=full gfinput

C 5 H 5 N 1

1 2
C    1.872208  -0.039287   0.051590
C    4.762110   0.000000   0.000000
C    5.686639  -1.489463  -2.175566
C    6.444117  -2.699889  -3.943745
C    5.672996   2.572238   0.000000
N    6.399047   4.622572   0.000000
H    1.142944   0.973568   1.704854
H    1.155700  -1.981246   0.130977
H    1.066750   0.855422  -1.636144
H    5.427898  -0.932504   1.729024
H    7.122472  -3.759194  -5.516318

