%chk=mol_4424.chk
# wB97XD/Def2SVP opt pop=full gfinput

C 5 H 9 N 1 O 1

1 2
C    2.457645  -0.845634  -0.120205
C    5.300077  -0.508847   0.141503
C    6.050166   2.279539  -0.014022
C    8.912156   2.701704   0.139783
O    9.403108   5.310849  -0.418726
C    9.939034   2.018057   2.642839
N   10.711062   1.507964   4.635574
H    1.959759  -2.849386   0.002778
H    1.790194  -0.129276  -1.942431
H    1.451140   0.159398   1.381938
H    6.250156  -1.575918  -1.358335
H    5.902711  -1.318840   1.949082
H    5.097933   3.349955   1.487725
H    5.352517   3.080292  -1.796846
H    9.860931   1.593474  -1.328988
H    8.812341   6.304901   1.014122

