%chk=mol_4101.chk
# wB97XD/Def2SVP opt pop=full gfinput

C 5 H 5 N 1 O 1

1 2
C    1.887647   0.092143  -0.012378
C    4.686445   0.099154  -0.003005
N    6.182522   2.043928   0.001644
C    8.584119   1.022776   0.007464
C    8.804801  -1.498931   0.006387
C    6.177288  -2.322228  -0.001115
O    5.334734  -4.443445  -0.004970
H    1.171725   2.029547   0.004101
H    1.193041  -0.901248   1.660068
H    1.205022  -0.868272  -1.708842
H   10.189157   2.299475   0.012416
H   10.447558  -2.683411   0.009921

