%chk=mol_0941.chk
# wB97XD/Def2SVP opt pop=full gfinput

C 4 H 7 N 1 O 1

1 2
C    1.786226  -0.023811   0.251050
C    4.633155   0.106165   0.041971
C    6.012560   2.127359   1.640244
C    7.602444  -0.124344   2.565058
O    9.630611  -0.487190   3.537341
N    5.866201  -1.797092   1.656307
H    1.061629  -1.725490  -0.675804
H    0.920561   1.611067  -0.672931
H    1.150881  -0.048585   2.222337
H    5.304348  -0.018066  -1.915048
H    4.915726   3.031688   3.139837
H    7.065724   3.535866   0.561173
H    6.489187  -3.540478   1.183120

