%chk=mol_4312.chk
# wB97XD/Def2SVP opt freq pop=full gfinput

C 5 H 9 N 1 O 1

1 2
C    0.84826970   0.11735996  -0.01253999
C    2.33479929  -0.00737000  -0.12281995
C    3.17868876   0.99986964   0.14830993
C    4.66852808   0.92615962   0.06913997
C    5.33497763  -0.25747991  -0.60087979
N    5.33281803   1.90789926   0.61596978
O    6.71572733   1.71887946   0.51824981
H    0.46765980  -0.60754979   0.71286976
H    0.38564986  -0.08964997  -0.98185962
H    0.53804982   1.11641955   0.30777988
H    2.69822884  -0.98442960  -0.42489985
H    2.80070901   1.96249938   0.48252982
H    4.67088842  -0.75163972  -1.31259942
H    5.64429808  -0.97426963   0.16467994
H    6.21353769   0.06664997  -1.16598964
H    7.06566763   2.51276898   0.96315968

