%chk=mol_7017.chk
# wB97XD/Def2SVP opt freq pop=full gfinput

C 6 H 13 N 1

1 2
C    0.83325970  -0.06820998  -0.02626999
C    2.32065916  -0.22768992  -0.34429985
C    2.51982903  -0.61868978  -1.80932927
C    3.11510897   1.02450955   0.02835999
C    2.79595900   2.29517913  -0.72149974
C    3.57648849   1.15728962   1.46793950
N    4.52059841   0.80774969   0.41639987
H    0.68579972   0.22422992   1.01877964
H    0.30032986  -1.01075959  -0.19135992
H    0.36287987   0.69388974  -0.65617973
H    2.68761897  -1.06778955   0.26199991
H    2.09491920   0.12649995  -2.48976898
H    2.03402925  -1.57711947  -2.02177930
H    3.58410859  -0.72042972  -2.04648924
H    3.39963865   3.13946867  -0.36860985
H    1.74604928   2.57285905  -0.58967978
H    2.99399900   2.17936921  -1.79134929
H    3.33717895   0.36742985   2.17021918
H    3.67919874   2.14198899   1.90733933
H    5.10179806   1.60777938   0.16050993

