%chk=mol_0754.chk
# wB97XD/Def2SVP opt freq pop=full gfinput

C 4 H 6 O 2

1 2
C    0.98582959  -0.29918990   0.90093970
C    1.87159920  -0.23919991  -0.10136996
C    3.07915878   0.64592975  -0.13249995
O    4.21577835  -0.20250992  -0.31672990
C    5.29828787   0.41360986  -0.84878969
O    5.38693762   1.58644938  -1.17356956
H    0.13240995  -0.96848965   0.84474969
H    1.08817959   0.30891988   1.79396927
H    1.72041941  -0.86989969  -0.97495961
H    3.20053864   1.19611955   0.80725968
H    2.96990895   1.35769951  -0.95886964
H    6.11295748  -0.32041988  -0.94884962

