%chk=mol_5532.chk
# wB97XD/Def2SVP opt freq pop=full gfinput

C 4 H 9 N 1 O 2

1 2
N    0.97415966   0.07294997   0.18192993
C    2.40297914   0.08731997  -0.09699996
C    3.10230899   1.07441962   0.85568970
C    4.13945866  -0.02841999   1.16012955
O    5.38907814   0.02688999   0.43532985
C    3.10799861  -1.07716966   0.65230972
O    3.64134860  -2.11716938  -0.19874993
H    0.50677979  -0.75501972  -0.19360992
H    0.47356981   0.86807966  -0.21401991
H    2.67717886   0.18706992  -1.15467954
H    2.53170896   1.38006949   1.74152935
H    3.50300860   1.97236931   0.37410986
H    4.35510826  -0.12363996   2.23005939
H    5.14009809   0.10672995  -0.50398982
H    2.53467917  -1.51928937   1.47621953
H    4.52236795  -2.29832911   0.17333993

