%chk=mol_0848.chk
# wB97XD/Def2SVP opt freq pop=full gfinput

C 6 H 10

1 2
C    1.06406963  -0.12396996   0.41400984
C    2.48369908  -0.01706999  -0.08939996
C    3.08251882  -1.12322950  -0.56868982
C    3.14848876   1.29589951  -0.05614998
C    4.44978809   1.46882951  -0.80388969
C    2.63546896   2.35639906   0.59555978
H    0.41099983   0.58258981  -0.11110996
H    1.01539958   0.07629997   1.49019945
H    0.64315975  -1.12369967   0.25416991
H    2.56675911  -2.07879925  -0.58744979
H    4.09810829  -1.13218951  -0.94770968
H    4.33275843   1.19142962  -1.85742939
H    5.24023819   0.85487968  -0.35791987
H    4.80143785   2.50709915  -0.78629971
H    1.70810938   2.31688929   1.15549958
H    3.14435887   3.31579876   0.59770977

