%chk=mol_4733.chk
# wB97XD/Def2SVP opt freq pop=full gfinput

C 5 H 5 N 1 O 1

1 2
C    0.99728960  -0.01764999   0.00765000
C    2.33121920  -0.06976997   0.00771000
N    3.10243893   1.06128967   0.00579000
C    4.48120832   1.04658961   0.00580000
O    5.19015789   0.04953998   0.00751000
C    5.09887791   2.35595918   0.00352000
C    5.61184788   3.44212866   0.00160000
H    0.41639987  -0.93512964   0.00921000
H    0.44917983   0.91792965   0.00607000
H    2.85919881  -1.02269959   0.00932000
H    2.64551902   1.96449935   0.00426000
H    6.08089781   4.39896870  -0.00012000

