%chk=mol_4090.chk
# wB97XD/Def2SVP opt freq pop=full gfinput

C 4 H 8 N 2 O 1

1 2
C    0.94085962   0.31057990  -0.30108988
C    2.35767913   0.09186997   0.10125996
N    3.12395883  -0.99228966  -0.49985981
C    3.48778892   0.39053985  -0.85315967
C    4.80602837   0.81165969  -0.34053987
N    5.48639774   1.65225947  -1.04846966
O    6.69635725   1.91872931  -0.39280984
H    0.63194978   1.32979953  -0.04779998
H    0.28460988  -0.38505986   0.23292990
H    0.78552967   0.16725993  -1.37594950
H    2.51437902   0.25387990   1.16142952
H    2.62191916  -1.42800951  -1.27507961
H    3.24644876   0.69866973  -1.86392927
H    5.16464806   0.40372986   0.62153977
H    7.14847755   2.51235914  -1.02116954

