%chk=mol_6837.chk
# wB97XD/Def2SVP opt freq pop=full gfinput

C 5 H 8 N 2

1 2
C    0.98210961  -0.01933999   0.28319988
C    2.45612907  -0.04008998   0.03051999
N    3.12188888   1.06406963  -0.21594992
C    4.50113869   0.69402975  -0.47174981
C    5.33590794   0.01387999   0.57530981
C    4.52865839  -0.82505971  -0.36439988
N    3.16814876  -1.22866952   0.00443000
H    0.59736979  -1.03437960   0.41017985
H    0.47537982   0.45539984  -0.56141979
H    0.77984971   0.55809981   1.18936956
H    5.02990818   1.23818946  -1.24198949
H    6.41113806   0.02541999   0.44582981
H    5.01761818   0.09530997   1.60764945
H    5.00424814  -1.38747954  -1.15550947
H    2.70838904  -2.02596927  -0.41814983

