%chk=mol_2790.chk
# wB97XD/Def2SVP opt freq pop=full gfinput

C 6 H 10 O 1

1 2
C    0.86668968   0.11754996  -0.17622994
C    2.34141922  -0.13368994   0.01077000
C    2.69565892  -1.57832944   0.22235993
C    3.20206881   0.90242964   0.02003999
C    4.68519783   0.87376964   0.14891995
C    5.48212767  -0.20221993  -0.53799975
O    5.23854780   1.78267932   0.76755971
H    0.64114976   1.17700946  -0.33779988
H    0.30950987  -0.20979993   0.70763975
H    0.49762979  -0.43573985  -1.04608953
H    1.97224927  -2.05195928   0.89524966
H    3.67448878  -1.71166933   0.68755972
H    2.67937899  -2.11638927  -0.73037970
H    2.82617903   1.92122924  -0.05464998
H    4.90068817  -0.68945974  -1.32441950
H    5.81596756  -0.93968964   0.19526993
H    6.35383749   0.25590989  -1.01495957

