%chk=mol_0459.chk
# wB97XD/Def2SVP opt freq pop=full gfinput

C 5 H 7 N 1

1 2
C    0.98348963   0.01722999  -0.00794000
N    2.42856908   0.00376000  -0.00050000
C    3.23731875   1.10810959   0.00386000
C    4.54519796   0.67358971   0.01058000
C    4.52072859  -0.74160969   0.01019000
C    3.19846892  -1.12957954   0.00324000
H    0.62729973   1.04980958   0.00230000
H    0.63055974  -0.50798982   0.88240969
H    0.64044976  -0.48723981  -0.91400969
H    2.82647896   2.10903931   0.00186000
H    5.42161798   1.30813956   0.01521999
H    5.37444782  -1.40640938   0.01447999
H    2.74961901  -2.11397910   0.00069000

