%chk=mol_3178.chk
# wB97XD/Def2SVP opt freq pop=full gfinput

C 6 H 6 O 1

1 2
C    0.96211958  -0.04094999  -0.27630988
C    2.46922922  -0.04850998  -0.21091992
O    3.08763885  -1.10848963  -0.32904986
C    3.20399880   1.25053942   0.00000000
C    2.55237913   2.40968919   0.18696992
C    4.60999823   1.25053942   0.00000000
C    5.80015802   1.25053942   0.00000000
H    0.62141979   0.60438979  -1.09031963
H    0.54413980   0.28262991   0.68043977
H    0.60453975  -1.05564964  -0.47908983
H    1.47225940   2.49240899   0.20230992
H    3.10057902   3.33678865   0.33687988
H    6.86514759   1.23557949  -0.00183000

