%chk=mol_1529.chk
# wB97XD/Def2SVP opt pop=full gfinput

C 6 H 11 N 1

1 2
C    2.209203  -1.121552  -0.269702
C    5.065524  -0.852455  -0.443424
N    5.809509   1.692571   0.317077
C    8.546910   2.012086   0.187272
C    9.225699   4.554032   1.070265
C    9.776253   6.633543   1.793709
C   10.429229   9.174979   2.665818
H    1.636219  -3.021918  -0.852833
H    1.252964   0.238559  -1.502653
H    1.542848  -0.822012   1.666927
H    5.656838  -1.220517  -2.393754
H    5.954319  -2.269485   0.778378
H    5.232519   2.033629   2.122710
H    9.204800   1.762737  -1.759373
H    9.501524   0.602048   1.370033
H    8.733048  10.338332   2.876976
H   11.687634  10.113606   1.320427
H   11.388000   9.100618   4.496112

