%chk=mol_6235.chk
# wB97XD/Def2SVP opt freq pop=full gfinput

C 4 H 9 N 1 O 2

1 2
O    2.45718884  -0.87498969  -0.99723965
C    2.07381916  -0.05653998   0.09754997
C    2.76852894   1.30020952   0.04080999
C    4.28782845   1.23882949  -0.09724997
N    4.94952822   0.71802974   1.08325958
C    5.18450832  -0.62114972   1.25666952
O    4.83205843  -1.50045943   0.48505983
H    3.29582882  -1.31212950  -0.73010969
H    2.28667903  -0.58529979   1.03196967
H    0.98947966   0.08554997   0.04616998
H    2.49434900   1.87903929   0.93119961
H    2.38332915   1.84386933  -0.83053970
H    4.67775822   2.25102925  -0.24704990
H    4.58178806   0.64394975  -0.96892965
H    5.27269793   1.36574948   1.79046929
H    5.72156811  -0.82966965   2.19619918

