%chk=mol_0030.chk
# wB97XD/Def2SVP opt pop=full gfinput

C 3 H 7 N 1

1 2
N    1.921096  -0.062361  -0.235120
C    4.664581  -0.126593  -0.000983
C    6.177874  -1.416973  -2.021572
C    6.225722   1.412060  -1.798792
H    1.178868   1.373944   0.812563
H    1.138598  -1.684464   0.448527
H    5.370545  -0.292775   1.922948
H    5.184653  -2.230519  -3.617522
H    7.849072  -2.454055  -1.453388
H    7.929782   2.290745  -1.080999
H    5.264342   2.498067  -3.245283

