%chk=mol_0700.chk
# wB97XD/Def2SVP opt freq pop=full gfinput

C 5 H 10 O 1

1 2
C    0.97479963  -0.16442993  -0.14716993
C    2.48916912  -0.03105999  -0.04165998
C    3.20137858  -0.86179972  -1.10223961
C    2.89222908   1.43808949  -0.09337996
C    2.89786887   2.14109921  -1.42755949
O    3.17700887   2.04900908   0.93891966
H    0.47537982   0.45139983   0.60889977
H    0.66543972  -1.20397961   0.00435000
H    0.60803980   0.15672995  -1.12793958
H    2.80220914  -0.40678984   0.94105965
H    2.87218881  -0.59797978  -2.11296916
H    3.00197887  -1.92845929  -0.95489967
H    4.28481865  -0.70949972  -1.05430961
H    1.94191933   1.99624932  -1.93551934
H    3.71709871   1.76398933  -2.04404926
H    3.04405880   3.21422887  -1.27213955

