%chk=mol_6751.chk
# wB97XD/Def2SVP opt pop=full gfinput

C 5 H 12 N 2

1 2
C    1.561424  -0.075230  -0.259063
C    4.315587  -0.618073  -0.474038
C    5.580418  -0.698670  -3.029193
N    5.999824   1.410888  -1.291817
C    8.466408   1.337775  -0.014589
C   10.251575   3.302088  -1.198823
N   12.710940   3.361615   0.076950
H    1.164619   0.907276   1.517809
H    0.487568  -1.843069  -0.267623
H    0.867951   1.102466  -1.813797
H    4.970490  -1.897380   0.985454
H    4.467350  -0.267377  -4.692549
H    7.088495  -2.049710  -3.332438
H    9.358037  -0.536512  -0.074323
H    8.184707   1.803139   1.986877
H    9.401350   5.188508  -1.092621
H   10.555311   2.864409  -3.199798
H   12.457623   3.895557   1.910853
H   13.791524   4.737581  -0.729926

