%chk=mol_5624.chk
# wB97XD/Def2SVP opt freq pop=full gfinput

C 5 H 3 N 1 O 1

1 2
N    0.89737970   0.09386997  -0.00656000
C    2.05659914   0.04543998  -0.00383000
C    3.47933865  -0.01774999   0.00008000
C    4.32483816   1.06657970   0.00260000
O    5.62017775   0.65248978   0.00733000
C    5.60073805  -0.70654976   0.00775000
C    4.30455828  -1.16949952   0.00280000
H    4.17785835   2.13834929   0.00179000
H    6.56983757  -1.18723953   0.01180000
H    3.99804854  -2.20657921   0.00187000

