%chk=mol_5517.chk
# wB97XD/Def2SVP opt freq pop=full gfinput

C 4 H 5 N 1 O 2

1 2
N    1.10370958  -0.10704996  -0.10751996
C    2.42714906   0.06687997  -0.05528998
C    3.22107863   1.18953955  -0.01935999
C    4.56000853   0.72527975   0.02680999
C    4.47473812  -0.64284980   0.01758999
O    5.35436773  -1.62344933   0.04288998
O    3.18678880  -1.05791962  -0.02884999
H    0.47045982   0.65591979   0.10205996
H    0.72792971  -1.03177965   0.07290997
H    2.88083911   2.21439910  -0.03079999
H    5.46881771   1.30738950   0.05878998
H    4.79614830  -2.41974902   0.00828000

