%chk=mol_4632.chk
# wB97XD/Def2SVP opt pop=full gfinput

C 4 H 10 N 2 O 1

1 2
C   -1.817671  -2.270695   0.982903
C    0.163159  -3.956633  -0.251806
C   -0.064591  -6.660925   0.715224
O   -0.281890  -3.875356  -2.926165
N    1.959193  -4.597590  -4.142790
C    1.526577  -5.782978  -6.397214
N   -0.538402  -6.846799  -7.117559
H   -1.666644  -0.334822   0.261935
H   -1.596460  -2.225757   3.039247
H   -3.732700  -2.921101   0.535000
H    2.040829  -3.192636   0.187310
H   -1.914368  -7.466383   0.241885
H    0.189861  -6.745037   2.766105
H    1.357069  -7.882823  -0.163329
H    3.289975  -3.208831  -4.198631
H    3.199892  -5.792294  -7.637895
H   -1.806389  -6.582653  -5.669518

