%chk=mol_1380.chk
# wB97XD/Def2SVP opt pop=full gfinput

C 6 H 11 N 1

1 2
C    1.546779   0.439550  -0.067558
C    4.431653   0.066254   0.018122
C    5.115980  -1.429918   2.412198
N    5.165037  -1.449949  -2.196693
C    5.720938   2.707637   0.000000
C    8.448568   2.641195   0.041744
C   10.696719   2.586449   0.076137
H    0.967445   1.464387  -1.771108
H    0.890042   1.525557   1.571572
H    0.543636  -1.373302  -0.052232
H    4.632437  -0.359142   4.118375
H    7.137609  -1.870224   2.497386
H    4.090898  -3.228843   2.496876
H    4.728529  -0.510302  -3.818721
H    4.178279  -3.102004  -2.230217
H    5.046476   3.800598   1.629624
H    5.100125   3.756794  -1.679721
H   12.708711   2.518589   0.098266

