%chk=mol_5303.chk
# wB97XD/Def2SVP opt freq pop=full gfinput

C 4 H 5 N 1 O 2

1 2
C    3.31575871  -1.04904962   0.51255977
O    2.45830917   0.05020998   0.24639989
C    3.05463862   1.23018956   0.13390994
N    2.44753909   2.36825919  -0.10959996
C    3.47734857   3.27415895  -0.13063996
C    4.67028809   2.63431883   0.10351996
O    4.41038799   1.30741954   0.27691990
H    2.69969893  -1.95080936   0.58020979
H    3.83397841  -0.92187965   1.46926939
H    4.03605843  -1.19268954  -0.30018988
H    3.30630898   4.32601881  -0.31115991
H    5.70383787   2.93948889   0.17484994

