%chk=mol_7043.chk
# wB97XD/Def2SVP opt freq pop=full gfinput

C 6 H 9 N 1

1 2
C    1.43792951  -0.45378983  -0.88133967
C    2.60901904  -0.19660993  -0.28592989
C    3.28845882   1.06938958  -0.40492985
C    4.46466827   1.33004951   0.18934993
C    5.19679832   2.59232903   0.09981996
C    4.81544828   3.72713852   1.01462960
N    6.02928782   2.95384884   1.24317944
H    0.96154964  -1.42170954  -0.76306975
H    0.92639965   0.28148991  -1.49430943
H    3.07573891  -0.97178966   0.31831989
H    2.81403875   1.84243929  -1.00518966
H    4.93638849   0.55233979   0.78841966
H    5.60131788   2.83205891  -0.87808973
H    4.01754856   3.57895851   1.73219931
H    4.94208813   4.74229813   0.66109979
H    6.85536766   3.46831870   0.93492967

