%chk=mol_2588.chk
# wB97XD/Def2SVP opt freq pop=full gfinput

C 6 H 12 O 1

1 2
C    3.08688903  -0.90027964   0.56715983
C    2.30907917   0.40077984   0.44397983
C    3.19283891   1.56378949   0.07150997
C    3.37265873   1.90199924  -1.38770950
C    2.58815908   2.82225895  -0.49810982
O    4.39367819   1.71228945   0.86219966
C    4.19143867   2.32797909   2.12796903
H    2.40620923  -1.73296940   0.76807970
H    3.80997849  -0.85191965   1.39005947
H    3.63957858  -1.12036955  -0.35272986
H    1.80491936   0.61350977   1.39171946
H    1.52100945   0.26869988  -0.30562991
H    2.83114886   1.32526958  -2.12740922
H    4.35495853   2.22548914  -1.71368933
H    3.03669882   3.77523851  -0.24651991
H    1.51315939   2.86223888  -0.63076973
H    3.37843871   1.84611940   2.67771888
H    3.98101854   3.39228868   2.00007915
H    5.11210823   2.22252917   2.70890903

