%chk=mol_0042.chk
# wB97XD/Def2SVP opt freq pop=full gfinput

C 3 H 6 O 1

1 2
C    1.00482965  -0.12226995   0.05016998
O    2.41316891  -0.02051999  -0.13886994
C    2.84384894   1.27660942  -0.16262995
C    4.06580877   1.59667945  -0.58943975
H    0.73364973  -1.18157959   0.02189999
H    0.46578982   0.39281985  -0.75235975
H    0.71382976   0.28093988   1.02611959
H    2.14236903   2.01676917   0.19924992
H    4.74964809   0.82977968  -0.93773967
H    4.40382862   2.62645912  -0.59693974

