%chk=mol_5472.chk
# wB97XD/Def2SVP opt pop=full gfinput

C 4 H 5 N 1 O 2

1 2
C    3.540100  -0.146813  -2.429356
O    4.616242   0.558509  -0.063363
N    6.029417   2.798628  -0.422751
C    8.595873   2.649018  -0.085264
O    9.887368   4.527482   0.333820
C    9.810117   0.212084  -0.332233
C   10.824767  -1.810868  -0.551006
H    2.443510  -1.875478  -2.151529
H    5.023875  -0.522207  -3.820705
H    2.275136   1.338663  -3.115610
H    5.233502   4.397771   0.267169
H   11.726129  -3.598152  -0.742908

