%chk=mol_4188.chk
# wB97XD/Def2SVP opt freq pop=full gfinput

C 5 H 7 N 1 O 1

1 2
C    1.01133955   0.05187998   0.09988996
C    2.51521897  -0.08363996  -0.02227999
O    3.19937873   0.95685965   0.73551971
C    4.14000845  -0.03434999   1.23129964
C    3.18959880  -1.16909957   0.83673966
C    3.78175855  -2.26000929   0.11238996
N    4.25633812  -3.14645886  -0.47003984
H    0.50993979  -0.79219967  -0.38422987
H    0.66630977   0.97049963  -0.38534987
H    0.69174975   0.08194997   1.14668953
H    2.83907890  -0.05151998  -1.07146955
H    5.09224844   0.02917999   0.69345975
H    4.31628799   0.07421998   2.30516911
H    2.57262897  -1.50221944   1.68068933

