%chk=mol_3587.chk
# wB97XD/Def2SVP opt freq pop=full gfinput

C 7 H 12

1 2
C    0.99043965  -0.12021996  -0.07709997
C    2.50145888  -0.01246999   0.07441998
C    3.02738905   1.43281937   0.00000000
C    2.50618911   2.29769921   1.14833951
C    4.47138834   1.43281937   0.00000000
C    5.66154814   1.43281937   0.00000000
C    7.10554743   1.43281937   0.00000000
H    0.69253975  -1.17285955  -0.11952996
H    0.65184975   0.36437988  -0.99823964
H    0.46791980   0.33572987   0.76864970
H    2.96650910  -0.60901982  -0.72186971
H    2.80103898  -0.47836983   1.02210963
H    2.67850900   1.87867928  -0.94040966
H    2.76501894   1.86801934   2.12384915
H    1.41771936   2.40895915   1.10428953
H    2.93698883   3.30591869   1.10842955
H    7.49957752   2.45367908  -0.01152000
H    7.49957752   0.91235965  -0.87829965
H    7.49950695   0.93236965   0.88988966

