%chk=mol_1548.chk
# wB97XD/Def2SVP opt pop=full gfinput

C 5 H 12 N 2

1 2
C    2.817261  -0.656434  -0.332913
C    4.841649   0.906615  -1.640226
N    5.264872   3.283135  -0.285500
C    3.707737   5.426802  -1.057056
C    5.024990   6.945726  -3.107900
C    7.041422   3.415775   1.595231
N    7.747008   5.329368   2.907703
H    2.529568  -2.439977  -1.338588
H    1.011476   0.351395  -0.283327
H    3.352695  -1.092092   1.617530
H    4.273805   1.281159  -3.597566
H    6.601985  -0.181792  -1.747316
H    3.278543   6.643143   0.562590
H    1.875364   4.769952  -1.766743
H    6.863297   7.645624  -2.465110
H    3.867835   8.571552  -3.651877
H    5.344694   5.793711  -4.797844
H    7.958941   1.578791   1.979431
H    6.781150   6.902036   2.361345

