%chk=mol_5902.chk
# wB97XD/Def2SVP opt freq pop=full gfinput

C 4 H 8 N 2 O 1

1 2
N    1.01265955   0.88037968   1.06514955
N    2.34491920   0.66466975   0.98700964
C    2.90516877   1.31267941   0.01457999
C    4.38281822   1.19514966  -0.23744991
C    5.06411839   2.51485896  -0.08681996
C    6.15549755   2.94549894  -1.03150964
O    4.81314802   3.43938875  -1.15350950
H    0.64491975   0.43321985   1.90873921
H    0.51902980   0.43171984   0.28929991
H    2.33493900   1.96969926  -0.66861975
H    4.51069832   0.80036974  -1.25125945
H    4.81975842   0.47428980   0.46187982
H    5.06388807   2.89240885   0.92777967
H    6.50245762   2.25572920  -1.79084933
H    6.90770769   3.63622880  -0.67056978

