%chk=mol_2598.chk
# wB97XD/Def2SVP opt pop=full gfinput

C 7 H 12

1 2
C    1.574217   1.624957   1.985857
C    4.390231   1.512782   1.823548
C    5.751173   2.641062   0.000964
C    8.580037   2.523559  -0.181433
C    9.726628   5.112654   0.004989
C   11.091313   6.204009  -1.834792
C   12.238981   8.775623  -1.633725
H    0.787732  -0.285179   1.891408
H    0.744798   2.741010   0.454668
H    1.006714   2.474162   3.783723
H    5.343295   0.440363   3.295097
H    4.791722   3.705224  -1.474005
H    9.085123   1.616661  -1.974783
H    9.373098   1.343539   1.326040
H    9.414804   6.115626   1.773546
H   11.411603   5.202737  -3.601497
H   11.849792   9.666384   0.191958
H   11.488949   9.999316  -3.122281
H   14.289939   8.650561  -1.866123

