%chk=mol_1675.chk
# wB97XD/Def2SVP opt freq pop=full gfinput

C 5 H 12 N 2

1 2
C    2.39967918  -1.03666961  -0.65760976
N    2.10293913   0.26872990  -0.08034997
C    3.28849888   1.13931954  -0.04904998
C    3.42408872   2.23908925  -1.06080961
C    3.11803865   2.58189917   0.37014988
N    4.15449858   3.23670888   1.17988944
C    4.08094835   2.84496880   2.58083916
H    1.48176944  -1.62909949  -0.71337974
H    3.12032890  -1.58461940  -0.04280999
H    2.79834890  -0.93990964  -1.67199945
H    1.74525940   0.13617995   0.86563969
H    4.20909834   0.65807974   0.27646989
H    2.63320899   2.36574912  -1.79010940
H    4.41509819   2.45113897  -1.44078946
H    2.10306907   2.91980886   0.57016981
H    4.06272840   4.25027847   1.10942948
H    4.26650810   1.77244937   2.69933891
H    3.10465884   3.08624887   3.01455903
H    4.84838820   3.37651873   3.15230894

