%chk=mol_2209.chk
# wB97XD/Def2SVP opt pop=full gfinput

C 7 H 10

1 2
C    4.426268  -2.043380   3.703485
C    5.508155  -0.969354   1.677831
C    6.731205   1.612938   1.465010
C    6.669240   3.132920   3.882348
C    5.463897   5.344070   4.162859
C    9.432852   1.329063   0.581677
C   10.359195   2.309207  -1.563352
H    3.605900  -3.919613   3.572319
H    4.313886  -1.102674   5.521100
H    5.505056  -2.053131  -0.074871
H    5.656952   2.638020   0.012756
H    7.699727   2.365918   5.489088
H    4.417613   6.203253   2.622184
H    5.508740   6.342771   5.954055
H   10.693847   0.248253   1.796487
H    9.189115   3.409595  -2.838992
H   12.325966   2.033534  -2.077546

