%chk=mol_3909.chk
# wB97XD/Def2SVP opt pop=full gfinput

C 7 H 14

1 2
C    1.859887   0.882370  -2.375461
C    4.544565   0.597248  -1.391727
C    5.739079   3.161077  -0.801603
C    8.456298   2.857039   0.139915
C    9.655046   5.422399   0.739204
C   12.347943   5.379691   1.661542
C   13.829980   3.355511   2.001466
H    1.048401  -0.974456  -2.786175
H    1.825003   1.997686  -4.115937
H    0.655036   1.816329  -0.978859
H    5.683181  -0.401718  -2.806999
H    4.522644  -0.578067   0.315792
H    4.608230   4.138463   0.633285
H    5.721769   4.342364  -2.503679
H    9.573088   1.880353  -1.308333
H    8.463895   1.665548   1.836549
H    8.511005   6.382191   2.179761
H    9.592136   6.612662  -0.958658
H   13.143650   7.230376   2.089281
H   13.193652   1.446226   1.622500
H   15.753966   3.577667   2.680520

