%chk=mol_3870.chk
# wB97XD/Def2SVP opt freq pop=full gfinput

C 4 H 4 N 2 O 1

1 2
C    2.15393925   0.42749983  -0.47943980
O    1.77499926   0.81109971   0.86636966
C    2.99098897   1.35885954   1.07201970
N    3.18894887   2.59135914   1.51481938
N    3.92575836   3.13400888   0.51022983
C    3.97004867   2.34160924  -0.62056977
C    3.40188861   1.16138959  -0.22834992
H    1.49470949   0.82758969  -1.25422955
H    2.24872923  -0.65863973  -0.56966978
H    4.24535847   4.09161854   0.61426979
H    4.29520845   2.73687887  -1.57165945

