%chk=mol_2293.chk
# wB97XD/Def2SVP opt freq pop=full gfinput

C 6 H 10 O 1

1 2
C    0.92766964   0.02658999   0.06751997
C    2.44152904   0.03040999   0.00776000
C    3.16769886   1.02739954   0.94183964
C    4.22603846  -0.07030997   1.21447957
C    3.16620874  -1.10672963   0.76775968
C    5.55073786  -0.00560000   0.41158986
O    5.67325783   0.09454997  -0.80907971
H    0.52271980  -0.81398970  -0.50379980
H    0.52438980   0.94964963  -0.35975987
H    0.56413978  -0.05704998   1.09664953
H    2.78850889   0.11468996  -1.03193963
H    2.60019898   1.31320953   1.83510923
H    3.53276873   1.93683922   0.45566982
H    4.45512867  -0.15775993   2.28534913
H    3.52913857  -1.92607927   0.14010994
H    2.59748888  -1.53278935   1.60272944
H    6.45953751  -0.05859998   1.03583968

