%chk=mol_5652.chk
# wB97XD/Def2SVP opt freq pop=full gfinput

C 4 H 6 N 2 O 1

1 2
N    2.32067895  -0.45073983  -1.38955951
C    2.38068914   0.01127000  -0.00528000
C    2.89556885   1.40424943   0.00989000
C    2.20022917   2.59053898   0.07433998
O    3.09989882   3.61320853   0.05228998
C    4.30326843   2.98505878  -0.03495999
N    4.24920845   1.67175937  -0.06233998
H    2.15809917  -1.45522940  -1.39337957
H    3.24749875  -0.31559989  -1.79871929
H    3.04693890  -0.63657981   0.57438982
H    1.38429952  -0.04090999   0.44498983
H    1.15678954   2.86279893   0.12788995
H    5.17817831   3.61841869  -0.07208998

