%chk=mol_5472.chk
# wB97XD/Def2SVP opt freq pop=full gfinput

C 4 H 5 N 1 O 2

1 2
C    1.87333930  -0.07768998  -1.28555954
O    2.44280910   0.29554990  -0.03352999
N    3.19062877   1.48096943  -0.22370991
C    4.54873848   1.40179944  -0.04511998
O    5.23216772   2.39583921   0.17664994
C    5.19128847   0.11222996  -0.17580993
C    5.72821808  -0.95826966  -0.29157987
H    1.29304945  -0.99245960  -1.13853955
H    2.65851903  -0.27633989  -2.02182913
H    1.20394957   0.70838976  -1.64870942
H    2.76944900   2.32719922   0.14137994
H    6.20519781  -1.90405929  -0.39312986

