%chk=mol_3348.chk
# wB97XD/Def2SVP opt freq pop=full gfinput

C 5 H 10 O 2

1 2
C    1.43896949   1.63720942   1.87576926
O    2.78600883   1.26812947   1.60631931
C    3.25089860   1.82817936   0.37876984
C    4.68396807   1.38615942   0.17418993
C    5.40813828   2.02409911  -1.01304960
O    6.48071766   2.49288893  -0.16274995
C    5.74384785   2.09722924   1.02013969
H    1.12231958   1.13694954   2.79474878
H    0.78182966   1.32153952   1.06087959
H    1.36507940   2.71996903   2.02243924
H    3.17114902   2.92111897   0.41967985
H    2.62596893   1.46148944  -0.44339985
H    4.79170799   0.29418990   0.18740992
H    4.89996815   2.86119890  -1.50190949
H    5.76882792   1.32074952  -1.76931930
H    6.33821774   1.44527936   1.66671944
H    5.41139793   2.97324872   1.58486938

