%chk=mol_3712.chk
# wB97XD/Def2SVP opt freq pop=full gfinput

C 6 H 4 O 1

1 2
O    0.98126966  -0.04329998   0.00001000
C    2.20346904  -0.02744999   0.00000000
C    2.93058896   1.21762955   0.00000000
C    3.52566886   2.24833918   0.00000000
C    4.24766827   3.49887872   0.00000000
C    3.64443851   4.81084824   0.00000000
C    3.14725900   5.89217758   0.00000000
H    2.81986904  -0.93993962  -0.00000000
H    4.92625809   3.46735883  -0.86487967
H    4.92625809   3.46735883   0.86487967
H    2.69612908   6.85790730   0.00000000

