%chk=mol_2267.chk
# wB97XD/Def2SVP opt pop=full gfinput

C 6 H 10 O 1

1 2
C    2.108065  -0.193980   0.076723
C    4.883052  -0.537684  -0.265091
C    5.938446  -1.173633  -2.824234
C    6.401371   1.414989  -1.699676
C    9.005075   2.122748  -0.917046
C    9.395378   2.676003   1.837381
O   10.701802   2.233524  -2.487635
H    1.739058   1.002934   1.722259
H    1.198294  -2.023953   0.393252
H    1.222634   0.688219  -1.572347
H    5.730595  -1.466276   1.352874
H    4.664997  -1.298676  -4.424151
H    7.516801  -2.478943  -2.924597
H    5.384945   2.962165  -2.585391
H    7.737238   3.628539   2.619066
H   11.025645   3.925452   2.061351
H    9.738118   0.911793   2.853600

