%chk=mol_0571.chk
# wB97XD/Def2SVP opt pop=full gfinput

C 6 H 10

1 2
C    2.372816  -1.537311   0.315679
C    4.180924   0.010167  -0.545640
C    6.006419   1.407751   1.119889
C    8.722806   0.749220   0.624460
C   10.367396   2.441129  -0.973681
C   10.793662   2.287816   1.831258
H    1.106529  -2.499049  -0.980654
H    2.113961  -1.883169   2.321944
H    4.368385   0.302092  -2.571634
H    5.599183   1.015936   3.114363
H    5.696787   3.440020   0.849583
H    9.023234  -1.276945   0.522264
H    9.572030   4.173649  -1.724073
H   11.745782   1.555056  -2.202627
H   12.455770   1.291496   2.497935
H   10.274706   3.906007   2.975071

