%chk=mol_5363.chk
# wB97XD/Def2SVP opt pop=full gfinput

C 4 H 10 N 2 O 1

1 2
C    5.435684   7.459411   2.031947
O    7.772293   6.128646   2.082989
C    8.225524   4.843330  -0.256757
C   10.726652   3.434048  -0.097434
C   12.893715   5.293501  -0.126631
N   13.573771   6.447273   2.066283
N   14.079216   5.870585  -2.185166
H    5.221540   8.462893   3.824050
H    3.861221   6.137358   1.820316
H    5.419451   8.840989   0.494787
H    8.249240   6.217652  -1.808052
H    6.693316   3.487074  -0.580259
H   10.920463   2.142685  -1.701415
H   10.832950   2.330486   1.651488
H   12.116905   6.757868   3.285119
H   14.649157   8.004880   1.758144
H   13.373857   4.872527  -3.686327

