%chk=mol_2523.chk
# wB97XD/Def2SVP opt freq pop=full gfinput

C 6 H 8 O 1

1 2
C    1.00707960   0.07368997   0.10649996
C    2.50870895  -0.07836998  -0.02356999
O    3.20746875   0.96496964   0.71710974
C    4.13435841  -0.03032999   1.23072958
C    3.17719889  -1.16684949   0.84300965
C    3.75586867  -2.28944921   0.13478994
C    4.23060846  -3.22398877  -0.44867983
H    0.49423984  -0.77619970  -0.35487986
H    0.66676980   0.98459959  -0.39624986
H    0.69601977   0.12983996   1.15480959
H    2.82672882  -0.06339998  -1.07479954
H    5.09078836   0.01679999   0.69888973
H    4.30436850   0.08925997   2.30449891
H    2.55616903  -1.48417938   1.69051945
H    4.65283823  -4.05504847  -0.96736962

