%chk=mol_6556.chk
# wB97XD/Def2SVP opt freq pop=full gfinput

C 3 H 9 N 1 O 2 S 1

1 2
C    1.33617949  -0.39623985   0.06033998
C    2.80665898  -0.09616996   0.29832989
C    3.25140858   1.14469957  -0.46455982
S    4.98005819   1.49955940  -0.16498993
N    5.22254801   2.83934903  -1.14432955
O    5.15578842   1.97565925   1.18657959
O    5.80179787   0.45809984  -0.73423976
H    1.04088962  -1.29981947   0.60277975
H    1.13561964  -0.55788976  -1.00357962
H    0.70674974   0.42932984   0.40746984
H    3.40669870  -0.95993966  -0.01102000
H    2.98009872   0.03983998   1.37219954
H    2.67954898   2.02293921  -0.14841995
H    3.13115883   0.99935961  -1.54277945
H    5.90918779   2.61924887  -1.86881936
H    5.48168755   3.64589858  -0.57316977

