%chk=mol_6881.chk
# wB97XD/Def2SVP opt freq pop=full gfinput

C 5 H 8 N 2

1 2
C    0.92816961  -0.06269998  -0.00451000
C    2.40637898   0.06058998  -0.00502000
C    3.24595881   1.14942956  -0.01068000
N    2.86511898   2.43039918  -0.01712999
C    4.57785845   0.69106972  -0.01004000
C    4.52882814  -0.68516976  -0.00454000
N    3.20954871  -1.05809963  -0.00212000
H    0.44042984   0.91636968   0.00890000
H    0.59057981  -0.61787975   0.87669969
H    0.58849978  -0.59525979  -0.89873970
H    3.53036880   3.19425893   0.02731999
H    1.89361930   2.71327901   0.03309999
H    5.47844791   1.28910959  -0.01438999
H    5.31500769  -1.42746949  -0.00331000
H    2.87542892  -2.01273918   0.00041000

