%chk=mol_0478.chk
# wB97XD/Def2SVP opt pop=full gfinput

C 5 H 9 N 1

1 2
C    1.845280   0.082581   0.252411
N    4.580431   0.010658  -0.152331
C    5.149315  -1.425307  -2.450484
C    5.589092   2.597410  -0.292719
C    8.369559   2.637982  -0.171417
C   10.636022   2.679329  -0.068106
H    1.394769   1.056168   2.023708
H    1.083739  -1.835113   0.427645
H    0.850037   1.041126  -1.290872
H    4.384316  -3.345212  -2.309302
H    7.189463  -1.639621  -2.722245
H    4.353778  -0.537060  -4.144396
H    4.890687   3.699007   1.320616
H    4.932374   3.564213  -2.005264
H   12.646501   2.702460   0.033240

