%chk=mol_4777.chk
# wB97XD/Def2SVP opt pop=full gfinput

C 4 H 8 N 2 O 1

1 2
C    2.021270  -0.421371  -0.510358
C    4.838587  -0.800809  -0.463002
N    5.841105  -2.968779  -0.912511
N    6.251913   1.306916   0.102348
C    8.826004   1.654701   0.314110
C   10.572753  -0.544865  -0.104880
O    9.630650   3.777090   0.838736
H    1.505488   1.559856  -0.237917
H    1.163901  -1.551919   0.992787
H    1.277795  -1.063462  -2.329276
H    4.475646  -4.293798  -1.285883
H    5.319617   2.940546   0.432558
H   10.171847  -2.051487   1.247975
H   12.522780   0.074361   0.196040
H   10.409632  -1.226640  -2.046365

