%chk=mol_6503.chk
# wB97XD/Def2SVP opt freq pop=full gfinput

C 6 H 4 S 1

1 2
C    0.91071969   0.02556999  -0.00487000
C    2.11140919   0.03199999  -0.00180000
C    3.54048872   0.03786999   0.00183000
C    4.28592825   1.19570959   0.00290000
S    5.96905804   0.87681967   0.00744000
C    5.70292759  -0.81437969   0.00802000
C    4.36045837  -1.12687957   0.00479000
H   -0.15374994   0.01971999  -0.00755000
H    3.93043852   2.21710920   0.00114000
H    6.54218769  -1.49611950   0.01070000
H    3.98792863  -2.14379907   0.00455000

