%chk=mol_4040.chk
# wB97XD/Def2SVP opt pop=full gfinput

C 5 H 7 N 1 O 1

1 2
C    1.712413  -0.033259   0.234383
C    4.572986   0.003685  -0.083772
C    5.943756   1.935231   1.596970
O    7.083449  -0.038286   3.103611
C    5.983856  -1.970285   1.514162
C    5.314477   0.066273  -2.710661
N    5.891788   0.116993  -4.828685
H    1.169381  -0.081674   2.232806
H    0.880480  -1.698713  -0.674368
H    0.846049   1.651904  -0.602615
H    4.734973   3.149474   2.756260
H    7.386751   3.104537   0.685120
H    7.450831  -3.070597   0.553614
H    4.800093  -3.257926   2.620710

