%chk=mol_6872.chk
# wB97XD/Def2SVP opt freq pop=full gfinput

C 5 H 12 N 2

1 2
C    0.90468967  -0.01764999   0.19531994
C    2.40076923   0.00587000  -0.02536999
N    2.74722886   0.04463998  -1.45278943
C    3.23510885   1.07544959   0.72070974
C    4.14696836  -0.02748999   1.28788960
N    5.43316793  -0.00488000   0.58964980
C    3.23853874  -1.10186958   0.65925980
H    0.66187972  -0.05120998   1.26222944
H    0.44890985  -0.89514971  -0.27497989
H    0.42874983   0.87562966  -0.22246993
H    3.73302865   0.19920993  -1.64966941
H    2.25778913   0.77773970  -1.96534932
H    2.66972899   1.59021938   1.51006949
H    3.71030855   1.85491931   0.11168996
H    4.22678852  -0.04976998   2.37781906
H    5.37265778  -0.10436996  -0.42156982
H    6.06139755  -0.75021970   0.88966972
H    3.71556854  -1.84281933   0.00665000
H    2.67854905  -1.66085935   1.42010951

