%chk=mol_6859.chk
# wB97XD/Def2SVP opt freq pop=full gfinput

C 6 H 9 N 1

1 2
C    0.93631965  -0.00397000   0.07489997
C    2.46459913   0.00008000   0.10482996
N    2.94102883   0.01789999   1.47783947
C    3.03628898   1.16320956  -0.65762979
C    3.78644848   0.72102970  -1.68152940
C    3.78873849  -0.72075969  -1.67889941
C    3.04389882  -1.16451967  -0.65476978
H    0.55135977  -0.00078000  -0.95256960
H    0.52476978   0.87892967   0.57922977
H    0.52880979  -0.89246970   0.57252979
H    3.95924854  -0.01703999   1.46333957
H    2.63321900  -0.82862967   1.94955921
H    2.86161900   2.19921899  -0.40839985
H    4.31790829   1.33133948  -2.39453912
H    4.31871796  -1.32817948  -2.39654922
H    2.86952901  -2.20294905  -0.41681984

