%chk=mol_2196.chk
# wB97XD/Def2SVP opt pop=full gfinput

C 6 H 12 O 1

1 2
C   -2.894286   1.434038   0.213596
C   -2.902846  -1.423587  -0.155468
C   -0.542710  -2.776178   0.810485
C    1.781407  -2.175037  -0.784350
O    3.169014  -0.002362  -0.038021
C    1.804329   2.175736   0.735028
C   -0.552991   2.780638  -0.806970
H   -4.571210   2.214721  -0.724275
H   -3.112039   1.861834   2.231786
H   -3.168485  -1.850080  -2.167403
H   -4.558927  -2.199150   0.821369
H   -0.218396  -2.333528   2.806073
H   -0.906105  -4.812188   0.679224
H    3.106048  -3.761009  -0.642582
H    1.303420  -2.006454  -2.793166
H    1.372092   2.011972   2.754314
H    3.130029   3.757286   0.560115
H   -0.909487   4.817687  -0.669795
H   -0.276278   2.335342  -2.809210

