%chk=mol_6227.chk
# wB97XD/Def2SVP opt freq pop=full gfinput

C 5 H 7 N 1 O 1

1 2
O    1.19857955  -0.00184000   0.26980990
C    2.50855899   0.19121993  -0.26522991
C    2.61309910  -0.58178979  -1.58145940
C    3.99357843  -0.62096977  -2.07336926
N    5.08631802  -0.66021979  -2.46018910
C    2.69351888   1.67372942  -0.43003985
C    3.66230869   2.38539910   0.16117993
H    1.13751960   0.54862982   1.07122958
H    3.21874857  -0.21549992   0.46553981
H    1.94874930  -0.14368995  -2.33785915
H    2.24982929  -1.60545945  -1.42968953
H    1.98253918   2.18895912  -1.07400954
H    4.40210819   1.92514920   0.80994976
H    3.74297857   3.45648861  -0.00209000

