%chk=mol_0823.chk
# wB97XD/Def2SVP opt freq pop=full gfinput

C 5 H 12 O 1

1 2
C    1.66628945   2.70389915   0.68196976
O    3.00031877   2.27770925   0.92365968
C    3.64207864   1.84717929  -0.27623990
C    5.07572794   1.40708947   0.04448998
C    5.74383783   0.82054973  -1.19720948
C    5.90507793   2.56915903   0.59546977
H    1.22880960   3.02151895   1.63242936
H    1.06801963   1.88087928   0.27968991
H    1.65419936   3.55220866  -0.00902000
H    3.64677858   2.66736913  -1.00460958
H    3.07934880   1.00639963  -0.69924974
H    5.03716850   0.63362980   0.82212967
H    5.80705786   1.56086946  -2.00197911
H    5.18037796  -0.04028998  -1.57200933
H    6.75963736   0.48082981  -0.96902966
H    5.96631765   3.39006877  -0.12714995
H    6.92539740   2.24275923   0.82342970
H    5.47025824   2.96303892   1.51991940

