%chk=mol_4867.chk
# wB97XD/Def2SVP opt freq pop=full gfinput

C 4 H 10 N 2 O 1

1 2
C    3.98569846  -1.23919964  -1.07861960
C    3.25834870  -0.41908982  -0.02078999
O    3.70796847  -0.80096972   1.27665949
C    3.38696885   1.09031963  -0.21939991
C    4.78645802   1.64172935  -0.09585996
N    5.70993805   1.01477969   0.56464982
N    6.88211775   1.68274939   0.59989977
H    3.62281847  -0.99953961  -2.08293915
H    3.83033848  -2.30875921  -0.89899963
H    5.06788826  -1.07695949  -1.04948962
H    2.19405913  -0.67723978  -0.06666997
H    4.63291788  -0.48218980   1.34982955
H    2.78480911   1.62009943   0.52800977
H    3.00793886   1.37422943  -1.20782948
H    4.96226835   2.63606906  -0.54596978
H    7.61216688   1.07589960   0.98512965
H    6.83541727   2.47297907   1.24914956

