%chk=mol_0374.chk
# wB97XD/Def2SVP opt freq pop=full gfinput

C 4 H 8 N 2

1 2
C    0.86915970   0.08903997  -0.04642998
C    2.35046935   0.04590998  -0.23711991
C    3.18616891   0.98117965   0.23887990
C    4.65681839   0.91409963   0.02353999
N    5.28984785  -0.16998994  -0.49879983
N    5.42253780   1.90679932   0.35366985
H    0.53577983  -0.80884969   0.48274982
H    0.36908987   0.12100995  -1.01920962
H    0.55042982   0.96315968   0.53022981
H    2.72815895  -0.79199970  -0.81673974
H    2.81332898   1.83700931   0.79003972
H    4.92429829  -1.06928957  -0.21461992
H    6.29311752  -0.09564997  -0.36374986
H    4.87167835   2.68336916   0.72900975

