%chk=mol_2962.chk
# wB97XD/Def2SVP opt freq pop=full gfinput

C 5 H 6 O 2

1 2
C    0.93276966   0.01652999   0.02673999
C    2.27334929   0.07693997   0.01160000
C    3.17855883  -1.11612952  -0.01326999
C    3.90972853  -1.17435956  -1.33232951
O    3.46604872  -1.74871933  -2.32384896
C    2.91677880   1.41541946   0.03819998
O    4.13557863   1.54249930   0.03951998
H    0.30564991   0.90282965   0.04840998
H    0.41769984  -0.94058961   0.00768000
H    2.61504889  -2.04969931   0.10303996
H    3.91259861  -1.08262956   0.79866970
H    4.86092806  -0.61558974  -1.38047945
H    2.23836899   2.28441930   0.05479998

