%chk=mol_6384.chk
# wB97XD/Def2SVP opt pop=full gfinput

C 4 H 7 N 1 O 2

1 2
O    1.432677   2.465412  -1.274734
N    4.003272   2.610373  -1.875969
C    5.304953   2.107101   0.134038
C    8.144909   2.198715   0.071394
C    9.055964   4.920601  -0.111928
C    8.473910   6.437598   2.229669
O    7.653731   5.532929   4.199841
H    0.624536   2.931929  -2.864560
H    4.402022   1.673598   1.965769
H    8.793576   1.135140  -1.582249
H    8.870034   1.260580   1.767347
H    8.178471   5.887952  -1.718611
H   11.107999   4.963498  -0.379533
H    8.893486   8.475025   2.090018

