%chk=mol_0844.chk
# wB97XD/Def2SVP opt freq pop=full gfinput

C 4 H 4 O 2

1 2
C    1.47589946  -0.40112984   0.92731965
O    2.83533883  -0.24083991   0.52532983
C    3.23021889   1.05582964   0.44518983
O    2.54546905   2.04008937   0.67886978
C    4.60773849   1.18025959   0.03675998
C    5.75558758   1.28604960  -0.30349988
H    1.25635946  -1.47186947   0.96148968
H    0.80273968   0.06666997   0.20189993
H    1.31889951   0.01589999   1.92713928
H    6.77257776   1.38340938  -0.60486978

