%chk=mol_3395.chk
# wB97XD/Def2SVP opt pop=full gfinput

C 6 H 12 O 1

1 2
C    1.763625   1.118642   2.215118
O    4.438343   1.302097   2.073937
C    5.218554   2.808322  -0.021354
C    8.044659   2.905756   0.021751
C    9.569876   4.947416   0.052270
C    8.701868   7.652011   0.048207
C   12.399419   4.632078   0.113724
H    1.277304  -0.053064   3.845517
H    1.007942   0.225218   0.510226
H    0.920977   2.988829   2.473085
H    4.343252   4.673935   0.112136
H    4.600009   1.908340  -1.780481
H    8.912421   1.040143   0.040988
H    6.652762   7.863982  -0.042859
H    9.493607   8.648293  -1.584535
H    9.348551   8.606077   1.767650
H   12.970966   2.643273   0.120394
H   13.181255   5.515543   1.813438
H   13.254898   5.524803  -1.545323

