%chk=mol_0066.chk
# wB97XD/Def2SVP opt freq pop=full gfinput

C 4 H 4 O 1

1 2
C    0.99175966  -0.00340000  -0.00588000
C    2.49087906  -0.05535998   0.00167000
O    3.12807870  -1.10127962   0.00647000
C    3.18993878   1.21074951   0.00040000
C    3.77724862   2.25967908  -0.00054000
H    0.62966979   1.02860963   0.00720000
H    0.61013979  -0.51869982   0.87961966
H    0.61990976  -0.49371979  -0.90947968
H    4.30677843   3.18400884  -0.00088000

