%chk=mol_1236.chk
# wB97XD/Def2SVP opt pop=full gfinput

C 5 H 12 N 2

1 2
C    2.793336  -0.083583  -2.304956
C    3.795080   0.708477   0.262653
C    5.548085   2.966719   0.000113
C    4.353476   5.578566   0.125497
C    4.324449   6.550755   2.824347
N    7.944541   2.501997  -0.322520
N    9.476920   4.528426  -0.536040
H    1.539881  -1.716722  -2.116928
H    4.341457  -0.598079  -3.577724
H    1.731159   1.449609  -3.198740
H    4.834864  -0.858181   1.129924
H    2.231313   1.199712   1.525538
H    2.413445   5.454071  -0.585305
H    5.356089   6.898918  -1.109987
H    3.309118   5.252475   4.075932
H    3.393533   8.395657   2.914676
H    6.243618   6.761610   3.567992
H   11.189899   3.952343  -1.224316
H    9.885100   5.248960   1.210426

