%chk=mol_5378.chk
# wB97XD/Def2SVP opt freq pop=full gfinput

C 5 H 9 N 1 O 1

1 2
C    2.53565884  -0.92236966   0.66999972
O    2.39117908   0.44980985   1.01317954
C    2.89400887   1.33854949   0.00000000
C    2.33641911   2.74912882   0.32427990
N    2.65061903   3.78805852  -0.67023975
C    4.33800840   1.33854949   0.00000000
C    5.52816820   1.33854949   0.00000000
H    2.04798937  -1.51997948   1.44542944
H    3.59161854  -1.20789957   0.63437980
H    2.05262923  -1.13767958  -0.28790990
H    2.49834895   1.02724957  -0.97496963
H    2.70255899   3.07613897   1.30657947
H    1.24546945   2.68436909   0.41827986
H    3.66555882   3.88638854  -0.73104972
H    2.30418921   4.68426847  -0.32720986
H    6.59382772   1.33443952   0.00390000

