%chk=mol_6838.chk
# wB97XD/Def2SVP opt freq pop=full gfinput

C 6 H 13 N 1

1 2
C    1.06108952   0.05146998  -0.07516997
C    2.54843903   0.06398997  -0.03723999
N    3.41335869  -0.62174976  -0.99087965
C    2.77916884  -1.30976963  -2.10267925
C    3.42298865   0.84815967  -1.02076960
C    2.81968904   1.62632930  -2.16178918
C    4.66703844   1.49872947  -0.45775983
H    0.67044979   0.73661971   0.68593979
H    0.68457973  -0.95021969   0.15973994
H    0.63009971   0.36069986  -1.03075969
H    2.88937902  -0.01073000   0.99159968
H    2.71894908  -2.37852931  -1.86797929
H    3.39885879  -1.21451962  -3.00122881
H    1.76753938  -0.98651958  -2.35816908
H    1.92079926   1.18017960  -2.59241915
H    3.55041862   1.73228931  -2.97242904
H    2.54763913   2.63272905  -1.82256925
H    5.10372829   0.91821963   0.36279988
H    4.43123817   2.49652910  -0.07255998
H    5.42989779   1.60151935  -1.23721957

