%chk=mol_4519.chk
# wB97XD/Def2SVP opt freq pop=full gfinput

C 4 H 8 N 2 O 1

1 2
C    2.42124915  -0.95214963  -1.45746946
C    3.20705867  -0.44061983  -0.26564991
C    2.70739889   0.92010969   0.13418995
N    3.48467851   1.95207930   0.06269998
N    2.91518879   3.12242889   0.45198983
C    3.63942862   4.28493881   0.43763983
O    3.18412876   5.36977768   0.77802968
H    2.77048898  -1.94797933  -1.74689925
H    2.53408885  -0.28387991  -2.31766915
H    1.35277939  -1.01732957  -1.22585964
H    4.27383852  -0.39098984  -0.50596982
H    3.07355881  -1.11338961   0.58739978
H    1.66157937   0.98418963   0.48485982
H    1.95145929   3.17146897   0.76374972
H    4.67669821   4.14884853   0.08970997

