%chk=mol_1300.chk
# wB97XD/Def2SVP opt freq pop=full gfinput

C 5 H 10 N 2

1 2
C    0.89310968   1.76718938   1.51860940
C    1.67889941   1.76255929   0.43448982
C    2.77527905   0.75794977   0.18942994
C    4.16132832   1.40069938   0.04894998
N    4.60508823   1.95848930   1.31396949
C    5.85545778   2.44662905   1.54324937
N    6.92439747   2.25442910   0.86167967
H    0.10708997   2.50844908   1.63302934
H    1.00412965   1.03190958   2.31047893
H    1.51602948   2.51353908  -0.33779988
H    2.53887892   0.22381991  -0.73856974
H    2.79702902   0.00915000   0.99081963
H    4.14449835   2.18620920  -0.71533978
H    4.86383820   0.62681973  -0.28124991
H    3.86440849   2.40217900   1.85190940
H    5.90274763   3.07340884   2.45037913
H    6.72987747   1.63835943   0.07278997

