%chk=mol_1074.chk
# wB97XD/Def2SVP opt pop=full gfinput

C 4 H 9 N 1 O 1

1 2
N    1.963104   0.061435   0.150441
C    4.703585   0.072584  -0.124627
C    5.858907   2.002524   1.726416
C    7.859674  -0.028762   2.365521
C    5.888954  -2.039865   1.555245
O    6.841432  -4.235519   0.253186
H    1.135895  -1.534892  -0.544959
H    1.086649   1.538804  -0.717075
H    5.409719   0.157225  -2.066491
H    4.679737   2.517588   3.352903
H    6.598659   3.731604   0.869236
H    9.545725   0.041139   1.165470
H    8.445262  -0.096641   4.344896
H    4.699314  -2.636055   3.149210
H    7.921902  -3.582127  -1.081282

