%chk=mol_4480.chk
# wB97XD/Def2SVP opt freq pop=full gfinput

C 5 H 11 N 1 O 1

1 2
C   -0.22407992   1.48535943   0.50149983
C    1.00746953   0.64569974   0.80490971
C    2.26901913   1.27051961   0.20798993
N    3.42675877   0.42576984   0.51015979
C    4.65093803   1.00888968  -0.05346998
C    5.82256746   0.12238995   0.30986989
O    6.55231762  -0.41175982  -0.52140981
H   -1.11155963   1.03389955   0.95536959
H   -0.39307985   1.55574942  -0.57755977
H   -0.11656995   2.49892902   0.89981967
H    0.85788971  -0.36410987   0.40312985
H    1.11562955   0.54903978   1.89237928
H    2.41394925   2.27065921   0.63333976
H    2.14922929   1.37589955  -0.87689966
H    3.27961874  -0.49595982   0.09243996
H    4.84685802   2.00015926   0.36923987
H    4.58972836   1.08588958  -1.14352953
H    6.00838804  -0.00346000   1.39045942

