%chk=mol_4688.chk
# wB97XD/Def2SVP opt pop=full gfinput

C 5 H 11 N 1 O 1

1 2
C    4.021942  -0.099532  -3.165915
C    4.298333   0.252486  -0.326280
N    5.408661   2.696771   0.323011
C    3.673968   4.822411   0.537268
C    8.027103   2.896175   0.350355
C    9.141588   5.454845   0.919238
O    9.429185   1.083796  -0.058941
H    3.213101  -1.957208  -3.582335
H    5.853691   0.035224  -4.118242
H    2.780146   1.340118  -3.980651
H    5.492300  -1.261732   0.429932
H    2.455038   0.090575   0.603938
H    2.196618   4.342213   1.902784
H    2.815031   5.171141  -1.310657
H    4.601691   6.551359   1.168285
H    8.589183   6.816374  -0.533035
H   11.205736   5.316820   0.917859
H    8.545852   6.094197   2.791390

