%chk=mol_6788.chk
# wB97XD/Def2SVP opt pop=full gfinput

C 6 H 11 N 1

1 2
C    1.765552   0.058355  -0.018538
C    4.660669   0.033221   0.041215
C    5.724755   0.229677  -2.644388
N    5.525994  -2.338782   1.268214
C    6.444892  -1.654285   3.808894
C    6.657052   1.143152   3.802772
C    5.659522   2.096028   1.694952
H    0.954482  -0.092464   1.882356
H    1.026877  -1.518282  -1.139486
H    1.054014   1.813136  -0.857066
H    7.797256   0.231699  -2.652646
H    5.101315   1.977202  -3.566556
H    5.093643  -1.356502  -3.819420
H    7.033031  -3.022692   0.283988
H    8.274525  -2.543534   4.183665
H    5.094702  -2.277215   5.248884
H    7.456122   2.236737   5.329424
H    5.525144   4.084095   1.257046

