%chk=mol_4530.chk
# wB97XD/Def2SVP opt freq pop=full gfinput

C 4 H 8 N 2 O 1

1 2
C    0.89725971  -0.43762985   0.37117985
C    2.31738901  -0.14849995  -0.05696998
C    3.15393901  -1.18867958  -0.23709992
N    2.69019890   1.18355954  -0.23276991
O    3.98602843   1.46342945  -0.69110972
C    1.94165933   2.32925892  -0.07532997
N    2.34329915   3.54935861  -0.22456992
H    0.68292975   0.03793998   1.33410943
H    0.70814973  -1.51019943   0.48979980
H    0.18885994  -0.06417997  -0.37566987
H    2.83430886  -2.21452904  -0.08463997
H    4.19062853  -1.04297960  -0.52308983
H    3.88189840   1.36767948  -1.65559936
H    0.89021963   2.14916921   0.19575994
H    3.34800863   3.49609852  -0.43837982

