%chk=mol_2894.chk
# wB97XD/Def2SVP opt pop=full gfinput

C 5 H 10 O 2

1 2
C    7.589783  -2.072009   0.102688
C    6.063488  -0.115670   1.563106
C    6.334003   2.560484   0.468822
C    4.476308   4.368177   1.735713
C    8.990693   3.593201   0.826037
O    9.627342   5.336398  -0.934243
O   10.425846   2.996444   2.532271
H    7.286689  -3.953628   0.907579
H    9.616438  -1.670405   0.181508
H    7.014569  -2.127321  -1.883679
H    6.644693  -0.152142   3.552156
H    4.070016  -0.681794   1.510061
H    5.925898   2.469645  -1.561821
H    4.819727   4.488874   3.774445
H    2.524542   3.745286   1.445792
H    4.655114   6.280391   0.962759
H    8.303117   5.676624  -2.170426

