%chk=mol_5648.chk
# wB97XD/Def2SVP opt freq pop=full gfinput

C 5 H 9 N 1 O 1

1 2
N    2.51704907  -0.35466987   1.54869938
C    2.56724906   0.01224000   0.14213996
C    2.97885895   1.42650950  -0.03404999
C    4.01854849   1.89398921  -0.71909976
O    4.17649841   3.26074862  -0.74448967
C    3.02732897   3.75980854  -0.03019999
C    2.24705911   2.57804918   0.54438978
H    2.31907916  -1.35080945   1.62376928
H    1.73472941   0.12001995   1.99335933
H    1.58414936  -0.14711994  -0.31447989
H    3.27051878  -0.65427977  -0.37040988
H    4.77302790   1.34291947  -1.25716949
H    2.41242909   4.33710861  -0.73023975
H    3.37016869   4.43722868   0.75963974
H    1.19877946   2.60862899   0.23281991
H    2.28672910   2.58053899   1.63813937

