%chk=mol_1221.chk
# wB97XD/Def2SVP opt pop=full gfinput

C 7 H 8

1 2
C    1.853557   0.017045   0.112042
C    4.683251   0.072698  -0.050909
C    5.996630   2.367865  -0.150252
C    8.629623   2.393130  -0.320006
C    9.969345   0.127443  -0.397863
C    8.679418  -2.166250  -0.308781
C    6.047180  -2.195030  -0.138328
H    1.070889   1.916976   0.347294
H    1.253531  -1.115260   1.735317
H    1.060080  -0.795046  -1.616150
H    4.978729   4.152106  -0.096074
H    9.633427   4.182644  -0.392855
H   12.018035   0.149307  -0.530692
H    9.721016  -3.934240  -0.373353
H    5.061178  -3.997168  -0.074569

