%chk=mol_0240.chk
# wB97XD/Def2SVP opt freq pop=full gfinput

C 4 H 4 N 2

1 2
C   -0.74510974   1.10537958   0.03074999
C    0.63828975   1.17531955   0.03324999
N    1.42019939   0.07126997   0.03575999
C    0.75354970  -1.10573959   0.03566999
C   -0.62994981  -1.17559958   0.03316999
N   -1.41188943  -0.07169998   0.03065999
H   -1.35777950   1.99933934   0.02875999
H    1.15771949   2.12646914   0.03328999
H    1.36610949  -1.99967921   0.03766999
H   -1.14951956  -2.12678909   0.03312999

