%chk=mol_2986.chk
# wB97XD/Def2SVP opt freq pop=full gfinput

C 5 H 10 O 2

1 2
C    1.36118948  -0.03453999   0.22154993
C    2.77661896  -0.60067981   0.06291997
C    3.11851883  -1.60273945   1.17106950
C    2.87025905  -1.31643939  -1.29293942
O    3.76362848   0.46050981  -0.00936000
C    3.94537854   1.30339944   1.03399968
O    3.35960889   1.30258954   2.10312915
H    1.16848958   0.74565971  -0.52359980
H    1.21259964   0.42562985   1.20331955
H    0.60357976  -0.81789970   0.10948996
H    3.01110888  -1.16298962   2.16745925
H    4.15893841  -1.93663931   1.08607960
H    2.46624923  -2.48191929   1.12865961
H    2.66650915  -0.62099981  -2.11552906
H    2.16430902  -2.15077901  -1.36250949
H    3.88194871  -1.70426929  -1.45986950
H    4.73426819   2.02446914   0.76877975

