%chk=mol_5805.chk
# wB97XD/Def2SVP opt freq pop=full gfinput

C 4 H 6 N 2 O 1

1 2
N    1.30175960   0.30357990  -0.68049973
C    2.35133910   0.22613990   0.06342997
N    3.21761870   1.22763956   0.44528982
C    3.52710867   2.25258923  -0.56637979
C    2.63108921   2.57831907   0.58023977
C    3.13096905   3.38140869   1.70823932
O    3.17140889   4.60401821   1.64534938
H    0.87899965  -0.62752974  -0.77167970
H    2.65690899  -0.74413973   0.49213982
H    3.08864903   2.09297919  -1.54262948
H    4.55808830   2.57635903  -0.54081982
H    1.56825936   2.65360880   0.38286987
H    3.45088863   2.83233881   2.60927916

