%chk=mol_2652.chk
# wB97XD/Def2SVP opt pop=full gfinput

C 5 H 8 O 2

1 2
C    4.882674  -0.654847   2.931438
C    4.931184   0.104899   0.159342
C    5.822964   2.750931  -0.194528
C    7.898621   3.573529  -1.307974
O    8.115939   6.157937  -1.330972
C    5.817938   6.868059  -0.042689
O    4.316777   4.708668   0.683552
H    4.240243  -2.612131   3.123037
H    3.595091   0.546036   4.019523
H    6.766032  -0.514440   3.778696
H    3.032765  -0.090272  -0.645455
H    6.156709  -1.205891  -0.877079
H    9.409740   2.534293  -2.183219
H    4.693570   8.070415  -1.298299
H    6.310721   7.940913   1.658216

