%chk=mol_0724.chk
# wB97XD/Def2SVP opt freq pop=full gfinput

C 4 H 6 O 2

1 2
C    0.90272969   0.04243999   0.04875998
C    2.39430904   0.00022000   0.15005995
C    3.18347883   1.03238964  -0.18987992
C    4.65382814   1.04729962  -0.06624997
O    5.23590803  -0.14971995  -0.26540992
O    5.27655792   2.07271934   0.14960995
H    0.55248976  -0.75744975  -0.61075974
H    0.54068983   0.99569958  -0.34919989
H    0.45799983  -0.10644995   1.03735960
H    2.81001902  -0.91554970   0.56284982
H    2.76492882   1.97787929  -0.52209979
H    4.62310839  -0.83335972  -0.58979976

