%chk=mol_6347.chk
# wB97XD/Def2SVP opt pop=full gfinput

C 5 H 8 N 2

1 2
C    1.805577  -0.060755   0.222477
C    4.662843   0.088590  -0.062285
C    5.985783   2.087335   1.621801
C    7.863925  -0.023962   2.288572
N    5.948631  -1.892032   1.491277
C    5.450556   0.065573  -2.708204
N    6.109031   0.028875  -4.799186
H    1.233991  -0.117560   2.213247
H    1.039935  -1.755215  -0.691791
H    0.890174   1.589373  -0.631962
H    4.863777   2.740783   3.238008
H    6.795115   3.736291   0.672969
H    9.577038  -0.035773   1.123744
H    8.407921  -0.138139   4.278340
H    6.656164  -3.382251   0.491971

