%chk=mol_5865.chk
# wB97XD/Def2SVP opt freq pop=full gfinput

C 4 H 9 N 1 O 2

1 2
N    0.72069973   0.21501993   0.47995982
C    1.86434925  -0.49239981   0.70522976
O    1.83178937  -1.59619939   1.23984957
C    3.13554883   0.21498993   0.28885990
C    4.33133841  -0.73423976   0.19371992
C    4.29669809  -1.61493933  -1.05379963
O    3.09188890  -2.35359907  -1.16446948
H    0.69841975   0.99179965  -0.16719992
H   -0.15104994  -0.26383990   0.66757977
H    3.34306884   0.97316962   1.05439961
H    2.98192906   0.73191977  -0.66400975
H    4.37166834  -1.37164950   1.08552957
H    5.25689793  -0.14647993   0.17757994
H    5.13240814  -2.32052922  -1.03971958
H    4.39417839  -1.00064969  -1.95513928
H    2.83678913  -2.66166902  -0.27061990

