%chk=mol_4624.chk
# wB97XD/Def2SVP opt pop=full gfinput

C 5 H 13 N 1 O 1

1 2
C    1.671878  -0.779777   0.165332
C    4.413701  -0.055936  -0.405724
C    5.494738  -1.775341  -2.507005
O    8.019279  -1.028370  -3.098357
N    4.874889   2.654139  -1.008604
C    3.416228   3.602649  -3.161606
C    4.462872   4.279757   1.197501
H    0.908902   0.310709   1.749301
H    1.556360  -2.778767   0.693152
H    0.439305  -0.501193  -1.471379
H    5.544041  -0.475739   1.284711
H    4.368763  -1.682726  -4.240942
H    5.543833  -3.748158  -1.885814
H    8.035758   0.802208  -2.820889
H    3.809745   2.519836  -4.877402
H    3.963908   5.554661  -3.584867
H    1.378121   3.578971  -2.816297
H    5.574314   3.625515   2.814086
H    2.473463   4.365211   1.758277
H    5.095306   6.208034   0.791928

