%chk=mol_5266.chk
# wB97XD/Def2SVP opt freq pop=full gfinput

C 4 H 5 N 1 O 2

1 2
C    0.74568975  -0.06150997   0.06245998
N    2.15366936  -0.02156999  -0.27422988
O    2.79337907  -1.24755955   0.05959998
C    2.97079897   1.08959961  -0.15353994
O    4.18787813   0.99310958  -0.01116000
C    2.36244917   2.40154910  -0.17283992
C    1.86749923   3.49760890  -0.18372993
H    0.22623990   0.79688966  -0.37028986
H    0.64207971  -0.03099999   1.15110958
H    0.30885988  -0.98613966  -0.32458988
H    3.72827864  -0.97119963   0.17961992
H    1.44140935   4.47329855  -0.19166993

