%chk=mol_6735.chk
# wB97XD/Def2SVP opt pop=full gfinput

C 5 H 6 N 2

1 2
C    1.664981  -0.149855   0.012056
C    4.188257   0.068597  -0.027363
C    5.585444   2.494079  -0.095545
C    8.390403   2.088544  -0.000132
N    9.566682  -0.057656   0.049473
N    8.190092  -2.311154   0.024850
C    5.751136  -2.235471  -0.000680
H    0.460772   1.512423  -0.005367
H    0.722745  -1.972326   0.063589
H    5.074198   3.690257   1.514710
H    5.167135   3.540799  -1.831693
H    9.559728   3.813637   0.016441
H    4.726092  -4.049985  -0.002362

