%chk=mol_5540.chk
# wB97XD/Def2SVP opt pop=full gfinput

C 5 H 9 N 1 O 1

1 2
N    1.889121   0.088288  -0.016762
C    4.633892  -0.012472  -0.029423
C    5.659201  -2.428846   1.201431
C    6.220449  -1.732104   3.949660
O    8.471113  -2.909668   4.790399
C    6.565495   1.062593   3.824843
C    5.674980   2.003355   1.650978
H    1.186427  -1.374795  -1.051028
H    1.305933   1.697163  -0.897110
H    5.347868   0.170623  -1.962688
H    7.389925  -3.036809   0.227334
H    4.345671  -4.026591   1.075481
H    4.666905  -2.236529   5.218025
H    9.870947  -2.113016   3.907991
H    7.315054   2.177324   5.362929
H    5.634804   3.992292   1.187353

