%chk=mol_4210.chk
# wB97XD/Def2SVP opt pop=full gfinput

C 4 H 8 N 2 O 1

1 2
C    1.802213   0.077687  -0.152822
C    4.667094  -0.064855  -0.020088
O    5.717196   0.294627  -2.458855
C    5.667081  -2.450049   1.283067
N    6.195373  -1.535799   3.835275
N    6.571579   0.995168   3.909919
C    5.655535   1.876649   1.820713
H    0.925947  -0.097661   1.713717
H    1.053144  -1.414819  -1.375721
H    1.197822   1.881374  -0.971584
H    7.546338   0.149175  -2.311456
H    7.410126  -3.127818   0.391551
H    4.297691  -3.998339   1.308163
H    7.572832  -2.532082   4.748844
H    5.585180   3.901037   1.359091

