%chk=mol_5672.chk
# wB97XD/Def2SVP opt pop=full gfinput

C 5 H 7 N 1 O 1

1 2
N    5.688907  -2.201550  -0.660951
C    4.426287   0.081409   0.217054
C    6.320756   2.112241   0.700710
O    6.848821   3.744889  -1.394372
C    5.515676   4.846921   0.697479
C    6.982179   6.662381   2.060179
C    8.210577   8.190451   3.205108
H    4.376246  -3.564930  -1.009322
H    6.837237  -2.892226   0.719551
H    3.393872  -0.330324   1.962632
H    3.041798   0.678242  -1.201866
H    7.866987   1.542262   1.909587
H    3.536452   5.284090   0.408389
H    9.311267   9.546329   4.205207

