%chk=mol_4139.chk
# wB97XD/Def2SVP opt freq pop=full gfinput

C 4 H 4 N 2 O 1

1 2
C    1.06311953   0.01964999   0.00517000
C    2.55299902  -0.04549998   0.00308000
N    3.22998881  -1.15625954  -0.00064000
C    4.52793837  -0.72293973  -0.00053000
O    5.56103802  -1.36146951  -0.00335000
C    4.50190830   0.76897973   0.00396000
N    3.27101874   1.14393961   0.00613000
H    0.63692975  -0.98677963  -0.00434000
H    0.72207969   0.56475979  -0.87902969
H    0.72408974   0.54706985   0.90080965
H    5.43442822   1.34550953   0.00493000

