%chk=mol_1002.chk
# wB97XD/Def2SVP opt freq pop=full gfinput

C 4 H 7 N 1 O 1

1 2
C    0.39876986   0.03215999  -0.14667994
C    1.63129938  -0.23071991   0.30820990
C    2.76865888   0.74573976   0.31015989
O    3.89199853   0.12157995  -0.31498986
N    4.99293804   0.98976964  -0.23427992
C    6.01323748   0.40886986  -0.76760972
H   -0.37733987  -0.72643977  -0.11558995
H    0.13625996   1.00219965  -0.55688977
H    1.84781933  -1.21640956   0.71288973
H    3.02350879   0.99991965   1.34496951
H    2.51465917   1.66250932  -0.23457992
H    6.98374748   0.92759967  -0.80480969
H    5.97010756  -0.60554981  -1.19904947

