%chk=mol_6144.chk
# wB97XD/Def2SVP opt freq pop=full gfinput

C 4 H 3 N 1 O 2

1 2
O    2.66944909  -1.13490951   0.06692997
C    2.14472914  -0.02883999   0.00342000
C    2.89252901   1.19673955   0.00261000
C    2.39081907   2.47260928  -0.06523997
O    3.41198874   3.36612892  -0.04090999
N    4.61577797   2.68413901   0.04431998
C    4.28617859   1.38997948   0.06924997
H    1.04783964   0.07420997  -0.05734998
H    1.40207946   2.90237904  -0.13098995
H    5.06985807   0.64700979   0.13447994

