%chk=mol_2054.chk
# wB97XD/Def2SVP opt freq pop=full gfinput

C 7 H 12

1 2
C    0.81396967   0.01115000  -0.55937982
C    2.23941922   0.00208000  -0.05064998
C    3.23978877  -0.76260972  -0.90180963
C    3.25298882   0.73634976  -0.91327965
C    2.42866921   0.01172000   1.48994946
C    1.53750944   0.77223969   2.44166899
C    1.53068936  -0.72847974   2.45113897
H    0.77102971   0.00236000  -1.65454936
H    0.28741989   0.90879971  -0.22111993
H    0.27061990  -0.87060964  -0.20617992
H    2.88481903  -1.27563953  -1.78875923
H    4.05387878  -1.27444947  -0.40150985
H    4.07608843   1.24114943  -0.42049983
H    2.90728879   1.24230957  -1.80770934
H    3.48258877   0.00866000   1.78145933
H    0.66506976   1.28236949   2.05400920
H    2.00985932   1.28475952   3.27259874
H    1.99818933  -1.23488951   3.28845882
H    0.65357971  -1.23555958   2.06954932

