%chk=mol_1266.chk
# wB97XD/Def2SVP opt freq pop=full gfinput

C 6 H 9 N 1

1 2
C    0.84968972   0.34129986   0.18085992
C    2.32593918   0.08800997   0.04809998
C    2.89083886  -1.12684965  -0.09443997
C    2.22057915  -2.46139908  -0.09835996
N    2.46196914  -3.12252879  -1.37128949
C    3.18984890   1.22807956   0.05718998
C    3.91236854   2.18659925   0.06485998
H    0.55216980   1.19950950  -0.43310982
H    0.59662974   0.56377977   1.22265947
H    0.23753992  -0.50149983  -0.14919995
H    3.97594857  -1.18326962  -0.19471994
H    1.14565969  -2.40350890   0.08766997
H    2.64887905  -3.06979871   0.70570976
H    2.01769924  -2.58234906  -2.11259913
H    2.00048923  -4.03015852  -1.36795938
H    4.55649853   3.03537869   0.07026997

