%chk=mol_2802.chk
# wB97XD/Def2SVP opt pop=full gfinput

C 6 H 12 O 1

1 2
C    2.184561  -0.582111   0.749295
C    4.750923  -0.186384  -0.532411
C    5.325947  -2.415901  -2.283980
C    4.922151   2.415656  -1.854124
C    7.602444   3.019083  -2.748739
C    3.050717   2.657560  -4.021507
O    3.636646   2.954908  -6.244713
H    1.727323   1.004919   1.996855
H    2.209373  -2.299853   1.906016
H    0.656075  -0.785106  -0.630318
H    6.175209  -0.207775   0.977669
H    3.990100  -2.515660  -3.861277
H    5.205647  -4.204679  -1.246482
H    7.237840  -2.292011  -3.062528
H    4.392404   3.883368  -0.485168
H    8.213506   1.766365  -4.278321
H    8.957416   2.856094  -1.193079
H    7.705283   4.956695  -3.475206
H    1.037252   2.585221  -3.477077

