%chk=mol_0786.chk
# wB97XD/Def2SVP opt pop=full gfinput

C 5 H 12 O 1

1 2
C    2.697187   5.017884  -2.654309
C    4.857655   4.496565  -0.845841
O    6.989530   3.703051  -2.287891
C    9.143969   3.075076  -0.780646
C   10.873125   1.452878  -2.418320
C   10.524755   5.457812   0.071980
H    1.010323   5.632272  -1.630550
H    2.235130   3.322592  -3.747270
H    3.224402   6.485899  -4.014421
H    4.314301   3.003550   0.480727
H    5.301495   6.217275   0.210270
H    8.556170   1.958663   0.864228
H   11.448623   2.470552  -4.126916
H    9.877749  -0.249501  -3.047675
H   12.568814   0.877608  -1.384338
H   10.942176   6.686456  -1.540467
H   12.295805   4.993507   1.033227
H    9.365974   6.562206   1.380369

