%chk=mol_3229.chk
# wB97XD/Def2SVP opt pop=full gfinput

C 5 H 8 O 2

1 2
C    3.521335  -1.818389  -0.219265
C    6.091589  -0.680283   0.217262
O    7.915458  -1.991110   0.811335
C    6.345663   2.094213  -0.193924
C    8.578752   3.253315   0.122681
C    9.091756   6.008649  -0.227958
O    6.971332   7.261688  -1.284504
H    2.034347  -0.398203  -0.025285
H    3.180882  -3.289560   1.191926
H    3.450753  -2.634222  -2.115416
H    4.659120   3.121279  -0.737995
H   10.208716   2.139548   0.710121
H   10.714010   6.287875  -1.479807
H    9.524787   6.880644   1.596195
H    6.937922   6.819455  -3.067687

