%chk=mol_0758.chk
# wB97XD/Def2SVP opt freq pop=full gfinput

C 4 H 10 O 2

1 2
C    0.89081967   0.00529000   0.04793998
C    2.41713929   0.00512000   0.02685999
C    2.96856880  -0.78646976   1.21317959
O    2.84169888  -0.66080976  -1.16841948
C    2.95755887   1.44705951  -0.00129000
O    4.37953854   1.43735945  -0.15732995
H    0.48889983   0.51953983  -0.83269966
H    0.49988979   0.49648982   0.94507962
H    0.49861982  -1.01767957   0.01248999
H    2.71266913  -0.31244987   2.16651917
H    4.05793858  -0.88839966   1.15450954
H    2.56940889  -1.80779934   1.21729946
H    3.74124861  -0.32521990  -1.35619950
H    2.70037913   2.00429916   0.90586966
H    2.55583906   1.98670924  -0.86567968
H    4.76730824   1.26567948   0.71876967

