%chk=mol_3497.chk
# wB97XD/Def2SVP opt pop=full gfinput

C 6 H 8 O 1

1 2
O    1.819031  -0.581412  -0.419727
C    4.252583   0.466970   0.228732
C    6.686040  -0.855574  -0.979332
C    7.949568   1.786358  -0.306589
C    5.351856   2.661547  -1.539182
C    5.413706   1.588976  -4.151634
C    6.303295  -0.755210  -3.779074
H    0.654242   0.831763  -0.300504
H    4.335750   0.830648   2.268484
H    7.444104  -2.574242  -0.142788
H    8.229303   2.212057   1.701226
H    9.679480   2.279804  -1.332975
H    4.721821   4.602126  -1.277871
H    4.846467   2.479944  -5.893092
H    6.629896  -2.236151  -5.139602

