%chk=mol_4368.chk
# wB97XD/Def2SVP opt freq pop=full gfinput

C 5 H 7 N 1 O 1

1 2
C    0.99999964   0.00000000   0.00000000
C    2.44399905   0.00000000   0.00000000
C    3.63415861   0.00000000   0.00000000
C    5.07815790   0.00000000   0.00000000
N    5.57867765   1.35016942   0.03989998
C    6.92233706   1.60005939   0.06549998
O    7.80244684   0.75201970   0.06366997
H    0.60600978   1.02087963   0.01166000
H    0.60591978  -0.52048981   0.87826967
H    0.60591978  -0.50030982  -0.88991970
H    5.47612762  -0.48368981  -0.89863968
H    5.47669792  -0.53819978   0.86683971
H    4.92422771   2.12047911   0.03127999
H    7.14046764   2.68101883   0.08850997

