%chk=mol_2274.chk
# wB97XD/Def2SVP opt pop=full gfinput

C 6 H 8 O 1

1 2
C    1.944339   0.008560  -0.054764
C    4.455521  -0.129012  -0.003874
C    6.223888  -2.331298   0.120905
C    8.653472  -0.740905  -0.104615
C    8.214772   1.337699  -2.170275
C    6.221337   2.038901  -0.081901
O    8.343897   1.430296   1.727720
H    0.793628  -1.688905   0.012453
H    0.967880   1.811303  -0.143695
H    6.006797  -3.627065  -1.472437
H    6.132879  -3.326523   1.928125
H   10.505781  -1.636956   0.000321
H    7.492858   0.700370  -3.997300
H    9.758621   2.687134  -2.436783
H    5.531814   3.974850   0.052156

