%chk=mol_5231.chk
# wB97XD/Def2SVP opt pop=full gfinput

C 4 H 6 N 2 O 1

1 2
C    4.028159   1.169967  -0.264259
N    6.286590   1.069188  -1.179000
N    8.119983   1.963048   0.360805
C   10.611190   1.979280  -0.339886
C   12.566604   2.836725   1.008566
C   15.139219   2.707259  -0.046260
O   16.964317   3.479213   1.149879
H    2.429035   0.480009  -1.404199
H    3.578310   1.917108   1.628075
H    7.713484   2.694523   2.097161
H   10.876300   1.178754  -2.217197
H   12.377990   3.644469   2.877675
H   15.325962   1.885096  -1.951841

