%chk=mol_4644.chk
# wB97XD/Def2SVP opt pop=full gfinput

C 4 H 9 N 1 O 2

1 2
C    1.886003  -1.009851   0.055596
C    4.634648  -0.191977   0.004743
C    4.898283   2.673509   0.048906
O    7.532826   3.282417  -0.010261
N    7.784670   5.921608   0.326979
C    9.093003   6.596391   2.447498
O   10.036146   8.685540   2.763743
H    1.751341  -3.073488   0.040383
H    0.867592  -0.287616  -1.593871
H    0.937588  -0.317550   1.758768
H    5.566018  -0.951968  -1.682896
H    5.639831  -1.003974   1.624786
H    4.038893   3.442382   1.771410
H    3.973527   3.513341  -1.604170
H    8.137652   6.960693  -1.244460
H    9.168271   5.092320   3.886732

