%chk=mol_5529.chk
# wB97XD/Def2SVP opt freq pop=full gfinput

C 4 H 10 N 2 O 1

1 2
N    0.99036962   0.03621999   0.14549994
C    2.43273902  -0.02989999  -0.04570998
C    3.11754894   1.03305960   0.84374970
C    4.15934849  -0.06333998   1.21377957
O    5.36060810  -0.09760997   0.40106985
C    3.03793883  -1.10291958   0.89982969
N    3.58175874  -2.21362925   0.11555996
H    0.49373981  -0.78681970  -0.19305992
H    0.54791981   0.83845967  -0.30268988
H    2.76860881  -0.03846999  -1.08950961
H    2.54352903   1.38567948   1.70880938
H    3.51410866   1.90189934   0.31029990
H    4.44641829  -0.04738998   2.27144909
H    5.07910824   0.16367994  -0.49087980
H    2.43571901  -1.39894950   1.76549935
H    4.51426840  -2.04386926  -0.26233989
H    2.98519897  -2.54847908  -0.63941979

