%chk=mol_3935.chk
# wB97XD/Def2SVP opt pop=full gfinput

C 5 H 7 N 1 O 1

1 2
C    1.799397   0.055407   0.120829
C    4.622195   0.137685   0.044730
C    5.928411   2.294562   0.226616
C    8.679606   2.017245  -0.130637
N    9.955833  -0.060358   0.071507
O    8.483793  -2.127227   0.934318
C    6.040396  -2.310209  -0.231208
H    1.111235  -1.823076   0.659533
H    1.018052   0.511284  -1.736866
H    1.050744   1.402914   1.506792
H    5.113618   4.158097   0.410354
H    9.681578   3.754376  -0.688125
H    5.048366  -3.837013   0.748974
H    6.252234  -2.843490  -2.220466

