%chk=mol_4047.chk
# wB97XD/Def2SVP opt freq pop=full gfinput

C 5 H 9 N 1 O 1

1 2
C    0.99436963   0.01205000   0.07586997
C    2.47288895   0.04101998  -0.05223998
C    3.29599881  -0.99298960  -0.19663993
O    4.64207840  -0.70634979  -0.24661990
C    4.68118811   0.73682976  -0.30326989
C    3.27993870   1.28297961   0.04374998
N    2.80967879   2.33461905  -0.84991968
H    0.61222976  -1.01439965   0.06474998
H    0.52287978   0.55154979  -0.75154972
H    0.68267977   0.47533983   1.01719964
H    3.05726886  -2.04290915  -0.24884991
H    4.99613810   1.01788962  -1.31652951
H    5.43985796   1.10457957   0.39639986
H    3.26593876   1.65367937   1.07500970
H    2.82612896   1.98664927  -1.80834925
H    3.46280885   3.11549878  -0.82556969

