%chk=mol_1152.chk
# wB97XD/Def2SVP opt freq pop=full gfinput

C 3 H 8 O 2 S 1

1 2
C    1.01719964  -0.04526998  -0.05947998
C    2.52593923   0.07316997   0.00749000
S    3.10302877   1.76161933   0.07637997
C    2.59914899   2.46303892  -1.47665942
O    2.38502908   2.44927907   1.13185966
O    4.55386829   1.71909928   0.07684997
H    0.72149974  -1.09880948  -0.05144998
H    0.62088978   0.40645984  -0.97279966
H    0.54144979   0.44700983   0.79388970
H    2.99522877  -0.39911985  -0.86096966
H    2.90229893  -0.42026982   0.90952969
H    2.99436879   1.84808934  -2.28721905
H    3.01201892   3.47222877  -1.54061937
H    1.50972950   2.50920916  -1.51626945

