%chk=mol_0852.chk
# wB97XD/Def2SVP opt pop=full gfinput

C 4 H 6 O 2

1 2
O    1.716457   0.059885   0.203807
C    4.424643   0.118807  -0.081013
C    5.855978   2.053452   1.594419
C    7.721459  -0.006803   2.502904
C    5.877502  -1.962424   1.386738
O    5.628493  -4.232854   1.581493
H    1.243818  -1.663299  -0.250162
H    4.961022   0.175896  -2.080097
H    4.703755   2.855187   3.118558
H    6.734303   3.611852   0.557053
H    9.556478   0.003250   1.552580
H    7.972849  -0.129541   4.546832

