%chk=mol_3688.chk
# wB97XD/Def2SVP opt freq pop=full gfinput

C 6 H 10 O 1

1 2
O    2.48863912  -0.71378976  -0.73101974
C    2.10836935   0.28754988  -0.13385995
C    2.97026896   1.48678946   0.16970994
C    4.37482834   1.35534954  -0.40688983
C    5.22387791   2.53983903  -0.04954998
C    6.26464748   3.03844881  -1.01781964
C    5.03419781   3.86025858  -0.75018972
H    1.06974959   0.35718986   0.23293991
H    3.00751901   1.60556948   1.25799954
H    2.46804905   2.36766911  -0.24526991
H    4.31622839   1.23300958  -1.49581945
H    4.85659790   0.44956985  -0.01839999
H    5.47354794   2.55968904   1.00617957
H    6.35124731   2.55860901  -1.98653924
H    7.20805740   3.38918877  -0.61474979
H    5.14790821   4.76567793  -0.16472994
H    4.29432821   3.93318868  -1.53896940

