%chk=mol_5723.chk
# wB97XD/Def2SVP opt pop=full gfinput

C 4 H 6 N 2 O 1

1 2
N    1.920510  -0.033694   0.069561
C    4.667624   0.000000   0.000000
C    5.578509   2.572238   0.000000
C    6.329260   4.692322   0.000000
C    7.688974   7.038266   0.027307
N    6.276442   9.009874  -0.070090
O    7.841362  11.149516  -0.029782
H    1.303457  -1.843749  -0.127424
H    1.242722   0.942104  -1.445886
H    5.322980  -0.996849  -1.691116
H    5.397058  -1.026839   1.641057
H    9.769846   7.020484   0.121283
H    6.622281  12.532040  -0.066745

