%chk=mol_6330.chk
# wB97XD/Def2SVP opt pop=full gfinput

C 5 H 9 N 1 O 1

1 2
O    2.354882   0.139953   1.387513
N    4.488081  -0.000321  -0.167770
C    5.596821   2.177040  -0.321480
C    4.792950   4.587291   0.957657
C    6.212324   6.537867  -0.610589
C    8.676507   5.232161  -1.333183
C    7.933580   2.510218  -1.910456
H    1.657176  -1.561159   1.251547
H    5.459287   4.557585   2.916603
H    2.752764   4.881994   0.900776
H    5.130021   6.992705  -2.319148
H    6.531158   8.294480   0.431009
H    9.595897   6.140268  -2.946990
H    9.996670   5.283901   0.263182
H    7.438170   2.257240  -3.901680
H    9.406055   1.166131  -1.372527

