%chk=mol_5719.chk
# wB97XD/Def2SVP opt freq pop=full gfinput

C 4 H 8 N 2 O 1

1 2
N    3.76743841  -0.93482965   0.84522969
C    2.78108883  -0.20739993   0.05845997
C    3.09279871   1.24663961  -0.09845997
C    4.25496817   1.85372925   0.19753993
C    4.40533829   3.31080866  -0.00457000
N    5.66744804   3.76453876   0.21231991
O    3.49454880   4.05630875  -0.33551985
H    3.52337861  -1.92455935   0.84025967
H    3.68353868  -0.63906974   1.81774938
H    1.80005932  -0.31525987   0.53496981
H    2.71065903  -0.65919977  -0.93690962
H    2.27748919   1.84635937  -0.50136983
H    5.10193825   1.29714942   0.57862979
H    6.44593763   3.16725874   0.44538984
H    5.83658743   4.75146818   0.07119998

