%chk=mol_6354.chk
# wB97XD/Def2SVP opt pop=full gfinput

C 5 H 9 N 1 O 1

1 2
O    1.584724   1.342461   1.490880
N    3.497883   1.565279  -0.323086
C    5.600487   2.103076   0.803927
C    7.999513   2.452694  -0.679357
C    9.008060   5.089392  -0.448394
C   11.152219   5.685544   1.331463
C   11.593885   5.699584  -1.475404
H    0.112439   0.934167   0.459563
H    5.720088   2.325006   2.875502
H    7.633870   2.027733  -2.672545
H    9.372021   1.067714   0.025606
H    7.551667   6.505779  -0.732590
H   12.000555   4.169265   2.416903
H   11.124572   7.490024   2.302480
H   11.850926   7.511435  -2.399574
H   12.713189   4.186613  -2.283545

