%chk=mol_5297.chk
# wB97XD/Def2SVP opt pop=full gfinput

C 4 H 6 N 2 O 1

1 2
C    5.804993  -2.125810   0.973889
O    4.377003   0.112495   0.557715
C    5.802234   2.216668   0.339508
C    4.752170   4.551330  -0.065857
N    6.732225   6.197054  -0.182793
N    9.001862   5.087237   0.119695
C    8.427385   2.646920   0.439607
H    4.480673  -3.706603   1.121949
H    6.863976  -2.015998   2.749325
H    7.074398  -2.507572  -0.616334
H    2.821153   5.170329  -0.275843
H    6.679558   8.093282  -0.462321
H    9.947802   1.312963   0.728263

