%chk=mol_3125.chk
# wB97XD/Def2SVP opt freq pop=full gfinput

C 5 H 10 O 2

1 2
C    2.71354890  -0.61928976   1.85556924
C    2.89805889  -0.31574985   0.37247986
C    3.26850867   1.13964963   0.08150997
O    2.29043913   2.00873923   0.64588976
C    4.66590834   1.49508953   0.59499979
C    5.84376812   1.00639963  -0.20270993
O    4.80992842   2.15371919   1.62870932
H    2.43672919  -1.66923940   1.99037933
H    1.91796935  -0.00776000   2.29168916
H    3.63447857  -0.43980983   2.41680908
H    1.95068920  -0.54414976  -0.13208996
H    3.65524864  -0.99199963  -0.04006998
H    3.25723886   1.31390953  -1.00077963
H    2.65170908   2.29823923   1.50886941
H    5.91179800  -0.08164997  -0.14131995
H    6.76344728   1.44362938   0.19737993
H    5.73700762   1.32096958  -1.24443948

