%chk=mol_6559.chk
# wB97XD/Def2SVP opt freq pop=full gfinput

C 3 H 8 O 3 S 1

1 2
C    0.97609967   0.00157000  -0.03693999
C    2.50074911   0.00589000  -0.01230000
C    3.07362890  -0.81803972  -1.16057956
S    3.15175867   1.68889928  -0.02067999
O    2.59168911   2.17697906  -1.45340943
O    2.50043893   2.47420907   1.00249958
O    4.59058857   1.65848935  -0.15682994
H    0.56711984   0.56367975   0.80887973
H    0.59055978  -1.02147961   0.02512999
H    0.58712983   0.45407981  -0.95503962
H    2.84069896  -0.42590985   0.93666965
H    2.78710914  -0.40631986  -2.13384914
H    2.71470881  -1.85140932  -1.11225951
H    4.16727877  -0.84312969  -1.11990964
H    3.35066867   2.52632904  -1.96797919

