%chk=mol_2720.chk
# wB97XD/Def2SVP opt freq pop=full gfinput

C 7 H 8

1 2
C    0.96743965  -0.00048000  -0.00477000
C    2.46773911  -0.01529999   0.00142000
C    3.15094876  -1.17019963   0.01269000
C    3.18499875   1.21762955   0.00000000
C    3.78007841   2.24833918   0.00000000
C    4.48307800   3.46596861   0.00000000
C    3.84946847   4.64343834   0.00002000
H    0.57564980   1.02157962   0.03767999
H    0.57129979  -0.54121977   0.86139971
H    0.58158982  -0.46569982  -0.91807967
H    2.63925910  -2.12691903   0.01490999
H    4.23684835  -1.19034946   0.01866999
H    5.56845808   3.43243861  -0.00002000
H    2.76561904   4.70925856   0.00005000
H    4.40934849   5.57272768   0.00002000

