%chk=mol_4454.chk
# wB97XD/Def2SVP opt pop=full gfinput

C 5 H 5 N 1 O 1

1 2
C    1.831598  -0.012416  -0.014097
C    4.372902   0.000000   0.000000
C    5.701379  -2.300987   0.000000
N    6.788936  -4.184685   0.000000
C    5.947724   2.288931  -0.082997
C    5.499443   4.384373   1.809942
O    7.751676   2.896232   1.860870
H    0.757875   1.734599  -0.057410
H    0.760407  -1.765231   0.016970
H    6.464281   2.855962  -1.987822
H    4.168226   4.111477   3.341811
H    5.661449   6.322155   1.166074

