%chk=mol_2575.chk
# wB97XD/Def2SVP opt freq pop=full gfinput

C 5 H 8 O 2

1 2
C    1.02053964   0.09407997   0.05235998
C    2.53258896  -0.01874999  -0.04372999
O    3.12237883   1.07196951   0.66704977
C    4.34965849   0.54674983   1.16909957
O    4.26381826  -0.86807966   1.34744942
C    3.14633894  -1.21281946   0.60998976
C    2.70848894  -2.47528911   0.59245980
H    0.52068985  -0.69349974  -0.51927984
H    0.68718976   1.06440961  -0.33116987
H    0.68431973   0.03756998   1.09383965
H    2.85555887   0.04787998  -1.08939958
H    5.15548801   0.77209973   0.46076980
H    4.57951832   1.02204967   2.12740922
H    1.82137930  -2.76746893   0.04235999
H    3.24033880  -3.24826860   1.13809955

