%chk=mol_3611.chk
# wB97XD/Def2SVP opt pop=full gfinput

C 5 H 8 O 2

1 2
O    1.870791   0.047035   0.017782
C    4.540218  -0.000132  -0.009449
C    5.666608   2.034498   1.674203
O    8.146836   1.144324   2.310908
C    7.930122  -1.547327   2.617894
C    5.615718  -2.325440   1.179529
C    4.673708  -4.677790   1.131606
H    1.305461  -1.317574  -1.070851
H    5.237962   0.198761  -1.949290
H    4.572400   2.325743   3.410975
H    5.811399   3.854625   0.703262
H    9.646655  -2.424349   1.873626
H    7.744438  -1.957870   4.636897
H    2.957402  -5.140811   0.112325
H    5.606591  -6.211076   2.127661

