%chk=mol_1550.chk
# wB97XD/Def2SVP opt pop=full gfinput

C 5 H 14 N 2

1 2
C    3.700481   0.688087  -3.354982
C    6.222471   0.394726  -2.000181
N    7.424942   2.868340  -1.727909
C    9.758394   2.791730  -0.194736
C   11.828986   1.147328  -1.366669
C   10.786594   5.514977   0.180582
N    8.843351   7.287918   1.076350
H    2.803125  -1.159801  -3.593012
H    3.955197   1.518735  -5.232671
H    2.405980   1.892504  -2.280484
H    7.408860  -0.879308  -3.117727
H    5.897571  -0.472054  -0.146548
H    6.202988   4.035510  -0.790661
H    9.293371   2.036161   1.682593
H   12.233067   1.717761  -3.315052
H   11.300714  -0.852909  -1.373831
H   13.586791   1.304194  -0.282892
H   11.557943   6.241406  -1.602129
H   12.338154   5.481491   1.554527
H    7.619357   7.590160  -0.382292
H    9.675265   8.994794   1.396942

