%chk=mol_5178.chk
# wB97XD/Def2SVP opt pop=full gfinput

C 4 H 8 N 2 O 1

1 2
C    1.853821  -0.946791  -0.520809
N    4.521623  -0.567201   0.031369
C    6.152306  -2.607539  -0.056843
N    5.538391  -4.899682  -0.596681
C    5.274887   1.912006   0.587799
C    8.028105   2.346076   1.196537
O    3.806815   3.720965   0.588555
H    0.728754   0.773163  -0.321159
H    1.096589  -2.378201   0.767569
H    1.669082  -1.639904  -2.461784
H    8.140335  -2.201266   0.375564
H    3.660343  -5.095004  -0.975911
H    9.205934   1.870697  -0.432483
H    8.580074   1.246010   2.855527
H    8.321409   4.346333   1.635161

