%chk=mol_0730.chk
# wB97XD/Def2SVP opt pop=full gfinput

C 5 H 12 O 1

1 2
C   -1.450289  -0.249387   0.911302
C    0.551970  -0.781156  -1.073629
C    3.157751   0.101459  -0.228808
O    4.919524  -0.465817  -2.189890
C    7.421862   0.284328  -1.531321
C    9.167817  -0.373731  -3.704014
H   -3.300161  -0.904782   0.257664
H   -1.588409   1.777722   1.300358
H   -1.014216  -1.222880   2.683751
H    0.044163   0.152312  -2.852277
H    0.606867  -2.810117  -1.490276
H    3.717602  -0.877381   1.508417
H    3.146224   2.143138   0.119128
H    8.021774  -0.713239   0.181508
H    7.471221   2.324892  -1.181079
H    9.102905  -2.403637  -4.101235
H   11.116314   0.159474  -3.270568
H    8.577618   0.597305  -5.431753

