%chk=mol_3608.chk
# wB97XD/Def2SVP opt freq pop=full gfinput

C 5 H 6 O 2

1 2
O    1.37563956   0.27214989   0.68735975
C    2.45404911  -0.00034000   0.18719992
C    3.00513887  -1.37369943  -0.12881996
O    4.29745817  -1.16490960  -0.73743975
C    4.63934851   0.24277991  -0.70256972
C    3.89631844   1.16095960  -1.62470937
C    3.44996858   1.01245964  -0.19282992
H    2.35763931  -1.89039934  -0.83986974
H    3.13610888  -1.94984937   0.79066974
H    5.62983799   0.52858979  -0.36987987
H    4.37792826   2.08965921  -1.90972924
H    3.28897882   0.72400975  -2.40905905
H    3.62383866   1.82502937   0.49962980

