%chk=mol_2362.chk
# wB97XD/Def2SVP opt pop=full gfinput

C 5 H 6 O 2

1 2
C    2.089848  -0.093069   0.162290
C    4.598913   0.038664  -0.084414
C    6.141534   2.373420   0.026116
C    8.401042   1.590526  -1.499913
C    8.360224  -1.233311  -1.292951
O   10.147413  -2.604288  -1.813702
O    6.030551  -2.105968  -0.585191
H    1.115373  -1.892712   0.015836
H    0.955748   1.577449   0.515120
H    6.679974   2.779239   1.983891
H    5.202246   4.032052  -0.771859
H    8.207534   2.118081  -3.491647
H   10.150437   2.366372  -0.722971

