%chk=mol_4549.chk
# wB97XD/Def2SVP opt freq pop=full gfinput

C 5 H 11 N 1 O 1

1 2
C    1.85331929  -0.01096000   0.52898979
C    2.76697898   0.09484997  -0.69198972
C    2.30937910  -0.87705970  -1.79095936
O    3.28478885  -0.96578962  -2.82629895
C    2.76985884   1.51829946  -1.20757961
C    3.89451861   2.45296907  -0.84414971
N    3.77776861   1.90820920  -2.19523907
H    2.17360926   0.68228972   1.31390953
H    1.87037933  -1.02392960   0.94320965
H    0.81727970   0.23532991   0.27238989
H    3.78568864  -0.18209994  -0.38903987
H    1.36260951  -0.55779976  -2.23943925
H    2.17448902  -1.88500929  -1.38674951
H    3.66375852  -0.06783998  -2.93246913
H    1.77632928   1.92430925  -1.36270940
H    4.72243834   2.07822919  -0.25468990
H    3.67640877   3.50659847  -0.72282970
H    3.41444874   2.62238908  -2.83262897

