%chk=mol_1016.chk
# wB97XD/Def2SVP opt pop=full gfinput

C 4 H 5 N 1 O 1

1 2
C    1.762018   0.005140  -0.011471
C    4.582132  -0.074380  -0.001398
N    6.029077  -2.046517   0.002570
O    4.590560  -4.269382  -0.002665
C    6.023200   2.235092   0.001153
C    7.217828   4.164144   0.002910
H    1.076331   1.954260   0.004063
H    1.036401  -0.971659   1.659085
H    1.050688  -0.940195  -1.706120
H    5.891164  -5.576790   0.000661
H    8.295085   5.865578   0.004309

