%chk=mol_5980.chk
# wB97XD/Def2SVP opt pop=full gfinput

C 5 H 11 N 1 O 1

1 2
O    2.086881   0.203977   0.391608
C    4.779306   0.069372   0.197590
C    5.520929  -2.518343  -0.854969
C    4.726999  -2.791579  -3.621320
C    5.588846  -0.535756  -5.203285
N    4.707365   1.858943  -4.122400
C    5.708655   2.200737  -1.544454
H    1.506509   0.658475  -1.305668
H    5.553112   0.309159   2.100733
H    4.631775  -4.026855   0.252278
H    7.574967  -2.757961  -0.709989
H    5.520684  -4.537421  -4.402344
H    2.664835  -2.971065  -3.736896
H    7.654997  -0.523435  -5.370091
H    4.829271  -0.721686  -7.120356
H    5.329519   3.313446  -5.227644
H    7.777470   2.279161  -1.575162
H    5.012177   4.016632  -0.835032

