%chk=mol_5432.chk
# wB97XD/Def2SVP opt pop=full gfinput

C 5 H 9 N 1 O 1

1 2
C    2.924200  -0.266678  -0.879101
O    5.597973  -0.246118  -0.595018
N    6.388654   2.269542  -0.316302
C    8.815629   2.300061  -0.102933
C   10.062811   4.778380   0.189067
C   10.099320   6.054739   2.738327
C   12.495210   4.985740   1.662657
H    2.311551  -2.220938  -1.147026
H    2.370491   0.837791  -2.537694
H    2.019097   0.490667   0.818421
H    9.999769   0.583793  -0.145603
H    9.868188   6.001676  -1.446831
H    9.228345   5.086576   4.320500
H    9.880792   8.090881   2.784153
H   13.913146   6.300177   0.984680
H   13.267125   3.304318   2.542627

