%chk=mol_6949.chk
# wB97XD/Def2SVP opt freq pop=full gfinput

C 6 H 13 N 1

1 2
C    2.31100917  -0.56348979  -1.45560944
C    2.43078899  -0.00653000  -0.04640998
C    3.29486871   1.24598956  -0.03903999
C    2.68537903   2.54410911  -0.61713976
N    3.17077875   3.29146886   0.56238979
C    4.46245813   3.91842842   0.28080991
C    3.35631871   2.02069926   1.29604959
H    1.70526934  -1.47461951  -1.45517945
H    3.29690886  -0.80784971  -1.86638927
H    1.83874929   0.16031994  -2.12801933
H    2.87883902  -0.76679969   0.60272974
H    1.43010950   0.20614992   0.34676987
H    4.29902840   1.03956962  -0.43650985
H    1.59044933   2.53630900  -0.68780971
H    3.07979894   2.85530901  -1.59082937
H    4.88827848   4.32143831   1.20585954
H    4.32326841   4.76175833  -0.40372986
H    5.20035791   3.24060893  -0.16362993
H    4.28987837   1.91269922   1.86022937
H    2.52679896   1.80752933   1.98212934

