%chk=mol_5108.chk
# wB97XD/Def2SVP opt freq pop=full gfinput

C 5 H 11 N 1 O 1

1 2
C    1.52229953   0.38837984   1.83599937
N    2.94946885   0.10901996   1.81416929
C    3.49592876   0.26926991   0.46339983
C    4.95354843  -0.14547995   0.42597982
C    5.92494774   0.74236971   0.15033995
O    5.13863802  -1.49135935   0.68088973
C    6.47268724  -1.98320925   0.71686971
H    1.13927960   0.25068992   2.85167885
H    0.96811968  -0.28459990   1.17392957
H    1.31870949   1.42394948   1.54538941
H    3.11482882  -0.85812968   2.09626913
H    3.38270879   1.31205952   0.14272995
H    2.94441891  -0.35456985  -0.25171992
H    5.68414783   1.78522933  -0.03399999
H    6.97487736   0.48240981   0.11047996
H    6.43173742  -3.05016899   0.95601964
H    7.05469751  -1.48548937   1.49953949
H    6.95545721  -1.87625933  -0.26000991

