%chk=mol_6145.chk
# wB97XD/Def2SVP opt freq pop=full gfinput

C 4 H 5 N 1 O 2

1 2
O    1.45448947  -0.30077988  -0.90271962
C    2.56508899  -0.05400998  -0.04326998
C    2.96022892   1.37641943  -0.02471999
C    2.27124906   2.48143911  -0.47077984
O    3.03419900   3.58497882  -0.23825991
C    4.15738821   3.08438873   0.34304988
N    4.17225838   1.77985930   0.50142980
H    1.31463957  -1.26242959  -0.89565963
H    3.40522885  -0.66503972  -0.38851988
H    2.29264903  -0.37339985   0.96726960
H    1.31113946   2.63925910  -0.94010961
H    4.92003822   3.79958844   0.61645979

