%chk=mol_5586.chk
# wB97XD/Def2SVP opt freq pop=full gfinput

C 4 H 5 N 1 O 2

1 2
N    0.98158962   0.03591999  -0.00818000
C    2.32062912  -0.02247999  -0.00135000
C    3.18720889   1.04356956   0.00253000
O    4.47358847   0.59884977   0.00955000
C    4.41293812  -0.75624973   0.00975000
O    5.59087801  -1.35330951   0.01611999
C    3.10785890  -1.19207954   0.00308000
H    0.47070983   0.91382962  -0.00245000
H    0.39227986  -0.79047972  -0.00169000
H    3.06660891   2.11667919   0.00125000
H    5.41597795  -2.30755901   0.01515999
H    2.77262902  -2.21740913   0.00158000

