%chk=mol_5659.chk
# wB97XD/Def2SVP opt pop=full gfinput

C 4 H 6 N 2 O 1

1 2
N    1.940824  -0.150347  -0.682040
C    4.438872   0.115821  -0.055539
C    5.834492   2.209997   0.087513
C    8.526483   2.515925   0.774958
O    8.967072   5.204627   0.798239
N    6.747626   6.489319  -0.025379
C    5.035100   4.792912  -0.405290
H    1.084363  -1.696275   0.081504
H    0.866628   1.436627  -0.533470
H    5.323963  -1.699261   0.349070
H    9.785040   1.667683  -0.626803
H    8.944055   1.771070   2.655991
H    3.105463   5.201622  -1.048137

