%chk=mol_0694.chk
# wB97XD/Def2SVP opt freq pop=full gfinput

C 5 H 12 O 1

1 2
C    0.90771961  -0.25969991   0.39783984
C    2.35629916  -0.20398992  -0.08952997
C    2.63036895  -1.37916946  -1.03110957
C    2.68453884   1.12038958  -0.79851967
C    2.57912898   2.34375930   0.10579996
O    2.96908879   3.50684857  -0.61418974
H    0.71831971   0.49124983   1.17065954
H    0.68283975  -1.23813951   0.83569968
H    0.20537992  -0.08845997  -0.42478985
H    3.01601887  -0.30990988   0.78110969
H    1.99796927  -1.32896948  -1.92387927
H    2.43499923  -2.33311915  -0.53024977
H    3.67619848  -1.38220942  -1.35552943
H    2.03097916   1.25944960  -1.66972935
H    3.70366859   1.07384956  -1.20500958
H    3.22562885   2.24708915   0.98361963
H    1.55277944   2.50070906   0.44755983
H    3.89069843   3.38067865  -0.89810967

