%chk=mol_1315.chk
# wB97XD/Def2SVP opt pop=full gfinput

C 5 H 14 N 2

1 2
C    2.334190  -0.553312   2.164436
C    5.114695  -0.654620   1.335526
C    5.420415  -2.806905  -0.581771
C    6.038242   1.923741   0.254414
N    5.750002   3.964437   2.144518
C    8.832410   1.897096  -0.642904
N   10.629313   1.583742   1.451442
H    2.061030   0.742795   3.751484
H    1.685825  -2.415731   2.793979
H    1.112803   0.055010   0.608794
H    6.243371  -1.141395   3.007461
H    4.480465  -2.355865  -2.369584
H    4.600501  -4.564369   0.143676
H    7.412243  -3.198191  -0.972415
H    4.866291   2.419133  -1.383280
H    6.526169   3.345099   3.797953
H    3.879986   4.229491   2.517380
H    9.252420   3.695435  -1.585102
H    9.150243   0.418310  -2.049881
H   10.392549   3.103818   2.618518
H   12.418090   1.747108   0.754624

