%chk=mol_5932.chk
# wB97XD/Def2SVP opt freq pop=full gfinput

C 5 H 7 N 1 O 1

1 2
O    1.03429961   0.01321999   0.17470995
C    2.23000908   0.01033000   0.03903999
C    3.44901872  -1.01832962   0.00327000
C    4.22798824  -0.81658971   1.30361950
C    4.25511837   0.72485971   1.34418941
C    3.46528864   1.02123964   0.06898998
N    3.99812865   0.02905999  -0.94913965
H    3.27876878  -2.00922942  -0.41061985
H    3.70192862  -1.23422956   2.16784930
H    5.23610783  -1.23996961   1.25738955
H    5.27824831   1.11154962   1.29594946
H    3.76448870   1.11788952   2.23970914
H    3.30954885   2.03898931  -0.28051987
H    5.01304817   0.02512999  -1.05026960

