%chk=mol_7037.chk
# wB97XD/Def2SVP opt freq pop=full gfinput

C 6 H 13 N 1

1 2
C    0.96104968   0.13107994   0.18160994
C    2.39885902  -0.22884992  -0.19668993
C    2.45561910  -0.81385970  -1.60891938
C    3.33945870   0.96863967  -0.04400998
N    3.07541895   2.15057921  -0.88247973
C    3.90244865   1.24035954   1.33184946
C    4.79065847   0.67930979   0.26214990
H    0.91712964   0.55407977   1.19067955
H    0.32220989  -0.75816971   0.16038993
H    0.53232980   0.86634970  -0.50735980
H    2.72467899  -1.01997960   0.49264982
H    2.07616925  -0.10856996  -2.35590911
H    1.85189927  -1.72547936  -1.67382932
H    3.48414874  -1.07025969  -1.88448930
H    3.10941887   1.91116929  -1.87226927
H    2.14505911   2.52425909  -0.70478970
H    3.62048864   0.58864981   2.15087914
H    4.06153822   2.27089906   1.63028944
H    5.54731798   1.33262956  -0.15903994
H    5.11010838  -0.35218987   0.35691985

