%chk=mol_1501.chk
# wB97XD/Def2SVP opt freq pop=full gfinput

C 6 H 9 N 1

1 2
C    0.99388963  -0.01614999   0.16588993
C    2.51999903   0.00000000   0.00000000
N    3.11308885  -0.70681971   1.13685954
C    2.89384890  -0.77104974  -1.24714959
C    3.49628854  -0.33008990  -2.36311913
C    3.00201893   1.36116946   0.00000000
C    3.39929867   2.48306894   0.00000000
H    0.49730980   0.49084982  -0.67138976
H    0.68086976   0.49855983   1.08340967
H    0.59913975  -1.03895962   0.21054992
H    2.87397885  -0.20436992   1.98964930
H    4.12656832  -0.63848972   1.05217957
H    2.62791896  -1.82836938  -1.21711957
H    3.79866838   0.70377970  -2.49292922
H    3.70131850  -1.01194966  -3.18246865
H    3.75526857   3.48738861  -0.00245000

