%chk=mol_5316.chk
# wB97XD/Def2SVP opt freq pop=full gfinput

C 5 H 11 N 1 O 1

1 2
C    1.42225945   1.33529949   1.85650933
O    2.78829908   1.41140950   1.47023952
C    2.92716885   1.39336944   0.04615998
C    4.39862823   1.55621934  -0.32429990
C    4.90943813   2.92643881   0.00885000
C    5.93047762   3.59563875  -0.87532967
N    4.54678822   4.05809879  -0.84336966
H    1.36924946   1.37196946   2.94739890
H    0.98030967   0.39458984   1.51475942
H    0.86087972   2.18421936   1.45200944
H    2.32616925   2.19704914  -0.39615986
H    2.56297898   0.43083984  -0.32905987
H    4.52193832   1.34930944  -1.39379954
H    5.00228834   0.82294971   0.22508991
H    4.94905853   3.11070871   1.07744956
H    6.23725796   3.10567880  -1.79131925
H    6.66973734   4.24254847  -0.42136982
H    4.45598841   4.90758801  -0.28156990

