%chk=mol_3263.chk
# wB97XD/Def2SVP opt pop=full gfinput

C 5 H 10 O 2

1 2
C    1.710108   3.989458   2.399385
C    4.548533   4.376077   2.411631
O    5.570327   3.212629   0.201917
C    8.245385   3.381363   0.102064
C    9.228421   6.012542  -0.533810
C    8.221272   7.218754  -2.905605
O   10.788541   7.093805   0.812809
H    0.835939   4.893200   4.039441
H    1.251755   1.971665   2.426994
H    0.873242   4.773732   0.676994
H    5.366293   3.514078   4.106772
H    4.975176   6.401051   2.404147
H    8.908679   2.102037  -1.383204
H    9.080758   2.736569   1.884057
H    8.508889   5.947875  -4.507526
H    9.235016   8.982189  -3.270266
H    6.212324   7.635760  -2.675909

