%chk=mol_1963.chk
# wB97XD/Def2SVP opt pop=full gfinput

C 5 H 12 N 2

1 2
N    2.651078   0.342740   2.113678
C    3.670812   0.897525  -0.378248
C    5.911366   2.579287  -0.035432
C    6.503644   4.628053  -1.930639
C    5.555398   5.328801   0.666072
C    7.259515   6.490510   2.589719
N    6.871725   9.210563   2.523427
H    1.056603  -0.716320   1.916863
H    2.087713   1.992735   2.934329
H    2.216441   1.787681  -1.551919
H    4.249503  -0.860487  -1.302569
H    7.493633   1.566148   0.787449
H    5.230516   4.908091  -3.511621
H    8.472417   4.967013  -2.383871
H    3.627670   6.008554   0.838301
H    9.248206   6.052547   2.217159
H    6.786952   5.767671   4.468749
H    7.395405   9.876276   0.794894
H    8.048646  10.040587   3.800277

