%chk=mol_6537.chk
# wB97XD/Def2SVP opt pop=full gfinput

C 4 H 6 N 2 S 1

1 2
C    1.835699  -0.225784   0.001002
C    4.683800   0.151858   0.030670
C    5.394941   2.875558   0.000567
N    5.780200   4.127653   2.160921
S    6.521010   7.090101   1.362682
C    6.275554   6.491285  -1.809791
N    5.653059   4.133379  -2.294279
H    1.378291  -2.242859   0.008749
H    0.987835   0.620662  -1.686845
H    0.949644   0.642091   1.658027
H    5.515468  -0.786882  -1.618626
H    5.483758  -0.770838   1.704986
H    6.597507   7.900019  -3.252615

