%chk=mol_4260.chk
# wB97XD/Def2SVP opt freq pop=full gfinput

C 6 H 11 N 1

1 2
C   -0.88034964   0.01941999  -1.15637958
C   -0.60975975   1.05628967  -0.02416999
C   -1.16992962  -0.02755999   0.94245964
C   -0.60029978  -1.05783963  -0.07128998
N    0.84477973  -1.21464956   0.20710991
C    1.62759936  -0.01323000  -0.10606996
C    0.88026965   1.28129959   0.21928991
H   -1.91925931   0.02232999  -1.51205933
H   -0.23405991   0.04405998  -2.03805923
H   -1.19199955   1.98084927  -0.06834998
H   -0.77005970  -0.04381999   1.96106923
H   -2.26542902  -0.03361998   1.00997961
H   -1.14748955  -1.99891925  -0.15781994
H    1.03597963  -1.49884951   1.16789961
H    1.87891924  -0.03403999  -1.17371964
H    2.58671904  -0.04011998   0.42317984
H    1.25498962   2.09162927  -0.41563985
H    1.04894960   1.57408953   1.26207948

