%chk=mol_3673.chk
# wB97XD/Def2SVP opt freq pop=full gfinput

C 5 H 6 O 2

1 2
O    2.99132872  -1.13200951  -0.25405991
C    2.30845904   0.07769997   0.04570998
C    3.30523872   1.14610958   0.32419989
O    3.55437875   2.04814935  -0.76068974
C    2.87786889   2.58979917   0.38484988
C    3.67143846   3.52748871   1.11722958
C    4.33573866   4.31618834   1.73303938
H    2.32321930  -1.76538932  -0.56548983
H    1.68296945  -0.09219997   0.92731965
H    1.66215944   0.33549985  -0.80010968
H    4.13939857   0.81393969   0.92713970
H    1.82621932   2.82316899   0.27022991
H    4.93122816   5.01511812   2.27262902

