%chk=mol_5243.chk
# wB97XD/Def2SVP opt freq pop=full gfinput

C 4 H 10 N 2 O 1

1 2
C    3.54720879  -1.80418932  -0.58513981
N    4.39568853  -0.65522981  -0.28733990
N    3.77299857   0.54667979  -0.31746989
C    4.58723831   1.54803944  -0.19715993
C    4.06912851   2.96761870  -0.19566993
O    4.35029840   3.63194871   1.02999961
C    3.52551866   3.17262888   2.09542918
H    4.14275837  -2.72158909  -0.55836976
H    3.11187887  -1.71438932  -1.58553934
H    2.73832893  -1.89519930   0.14678994
H    4.85266829  -0.81511968   0.61438978
H    5.67972803   1.42205954  -0.08747997
H    2.99727869   2.99702907  -0.41927984
H    4.59875822   3.50559855  -0.98800963
H    3.72064877   3.79767871   2.97075868
H    3.76889873   2.13760924   2.35159922
H    2.46657896   3.25987864   1.83499932

