%chk=mol_4806.chk
# wB97XD/Def2SVP opt freq pop=full gfinput

C 4 H 9 N 1 O 2

1 2
C    1.51779938  -0.42727983   0.86698967
C    3.00940895  -0.18336993   0.72088975
N    3.31943870   0.84245968  -0.26808989
O    2.93371892   2.13979912   0.17526995
C    1.94479930   2.64879894  -0.71900976
C    4.58805799   0.86524969  -0.82569969
O    5.35954762  -0.08429997  -0.91326964
H    1.33448946  -1.23988962   1.57616949
H    1.07273960  -0.70255977  -0.09405997
H    1.00243962   0.46439981   1.23535943
H    3.49634862  -1.11923957   0.42296985
H    3.44622850   0.12187996   1.67990935
H    1.70756924   3.67236853  -0.41718984
H    1.03198957   2.04840922  -0.66604978
H    2.32435894   2.66775894  -1.74594939
H    4.82841825   1.84608936  -1.26881945

