%chk=mol_1346.chk
# wB97XD/Def2SVP opt pop=full gfinput

C 5 H 12 N 2

1 2
C    5.801440  -2.110730   0.621172
C    4.079087   0.031993   1.472928
C    4.979579   2.673981   0.637839
C    2.947236   4.633835   1.284844
N    7.381214   3.350579   1.876668
N    8.465482   5.541433   1.106642
C   10.446859   6.141138   2.397174
H    4.941256  -3.934618   1.086177
H    7.642071  -2.038353   1.560328
H    6.104798  -2.052205  -1.424476
H    3.876131  -0.038928   3.534714
H    2.193934  -0.315906   0.682607
H    5.259542   2.658674  -1.416123
H    2.614247   4.732800   3.325294
H    1.153886   4.150424   0.370878
H    3.480800   6.522371   0.628466
H    8.617604   1.880126   1.691985
H   11.482543   7.887830   1.936610
H   11.187802   5.000896   3.980103

