%chk=mol_6420.chk
# wB97XD/Def2SVP opt freq pop=full gfinput

C 4 H 3 N 1 O 1 S 1

1 2
C    1.89041924   0.32256988   0.30477989
O    1.32944953   0.71332973  -0.98541963
C    2.46367908   1.38042951  -1.28122950
N    2.60423899   2.52779913  -1.90784931
S    3.79963851   3.35035896  -1.00198960
C    3.72855854   2.27984905   0.39181986
C    2.96919894   1.23788953  -0.02246999
H    2.14548922  -0.74207973   0.31288987
H    1.27935946   0.57210976   1.17563963
H    4.13353872   2.55800891   1.35318947

