%chk=mol_6481.chk
# wB97XD/Def2SVP opt pop=full gfinput

C 5 H 6 N 2

1 2
C    1.825608   0.047205  -0.011641
C    4.618377   0.110114  -0.005480
C    6.176608   2.094856   0.003080
C    8.676734   0.954123   0.005102
N    8.690076  -1.481130  -0.000454
C    6.208922  -2.177645  -0.006614
N    5.565602  -4.503350  -0.013946
H    1.026310   1.954997   0.007767
H    1.118019  -0.954350   1.654436
H    1.125559  -0.918275  -1.701302
H    5.761057   4.080656   0.006822
H   10.366357   2.162584   0.010318
H    3.646170  -4.680549  -0.018482

