%chk=mol_6159.chk
# wB97XD/Def2SVP opt freq pop=full gfinput

C 7 H 16

1 2
C    1.00910962  -0.84360969   1.29806948
C    2.32744908  -0.38187987   1.90360928
C    2.75230908   1.04391956   1.48437941
C    1.68465936   2.11793923   1.78430927
C    1.33131957   2.28416920   3.25588870
C    4.13100863   1.35440946   2.10841918
C    4.71960831   2.69112897   1.68095934
H    0.84341973  -1.90139937   1.52749944
H    1.01317954  -0.72871977   0.21126992
H    0.16335994  -0.28447992   1.70576942
H    3.10790896  -1.08720958   1.58828938
H    2.26880908  -0.45873985   2.99614882
H    2.88609886   1.03222954   0.39341986
H    0.76772970   1.88698936   1.22829950
H    2.01726913   3.08573890   1.39184952
H    0.92339963   1.36252952   3.67852855
H    0.57047981   3.06364894   3.36820889
H    2.20090914   2.58423901   3.84665871
H    4.83655787   0.56734979   1.81362927
H    4.07329845   1.32006943   3.20275879
H    4.74987793   2.77758884   0.59029979
H    5.74448776   2.78555894   2.05601931
H    4.14621830   3.53113866   2.08265924

