%chk=mol_2366.chk
# wB97XD/Def2SVP opt freq pop=full gfinput

C 5 H 10 O 2

1 2
C    0.99343967  -0.11058996   0.30529988
C    2.39273906   0.19983992  -0.18675992
C    3.21610880   1.18687963   0.64509976
C    4.09469843  -0.02470999   0.98320967
C    5.54690790   0.01656999   0.53040975
O    6.26010752   1.00315964   1.27376950
O    3.30247879  -0.88427967   0.12031996
H    0.56136984  -0.94190961  -0.26111990
H    0.33975989   0.75815976   0.17722994
H    0.98914963  -0.38497984   1.36551952
H    2.41088915   0.41981986  -1.26067948
H    2.70353889   1.63132942   1.50276947
H    3.69895864   1.97472930   0.06022998
H    3.99891853  -0.34974986   2.02694917
H    5.63847780   0.24791992  -0.53615975
H    6.02835798  -0.94951963   0.71017969
H    6.01844788   1.87310934   0.91292965

