%chk=mol_5591.chk
# wB97XD/Def2SVP opt pop=full gfinput

C 4 H 6 N 2 O 1

1 2
N    2.301762   0.133641   1.432204
C    4.343894  -0.073813   0.152879
N    5.726777  -2.206331  -0.297745
C    7.655073  -1.626393  -2.169613
C    9.775610   0.167203  -1.594400
C    7.378719   1.166377  -2.723794
O    5.357298   1.989957  -1.046625
H    1.789476   2.002297   1.346146
H    4.795105  -3.864717  -0.113743
H    7.795630  -2.919400  -3.746949
H   10.177479   0.604467   0.365435
H   11.436887   0.096471  -2.788442
H    7.359463   1.779328  -4.673935

