%chk=mol_3350.chk
# wB97XD/Def2SVP opt freq pop=full gfinput

C 5 H 10 O 2

1 2
C    3.40692878  -0.05527998   1.64649928
O    4.61372805   0.21943991   0.94832963
C    4.56967831   1.50592947   0.31972989
C    5.88178778   1.72620940  -0.38271984
O    7.03014708   1.25378954   0.34330988
C    5.98185778   1.62160933  -1.88097930
C    6.10395765   2.96225905  -1.21042955
H    3.50649858  -1.02734959   2.13798904
H    2.56442904  -0.10084996   0.94893968
H    3.22212887   0.70515972   2.41207910
H    4.43590832   2.27765894   1.08679962
H    3.72914863   1.54728937  -0.38197985
H    6.77638721   0.44215986   0.82590967
H    5.08365774   1.41625941  -2.44995928
H    6.88011789   1.18012965  -2.29757905
H    7.08489704   3.42355871  -1.17090952
H    5.28730774   3.66428876  -1.32401943

