%chk=mol_6017.chk
# wB97XD/Def2SVP opt pop=full gfinput

C 4 H 3 N 1 O 2

1 2
O    1.899099  -0.014702   0.335162
C    4.203941  -0.035640   0.127557
C    5.568758   2.380224  -0.033580
C    8.070377   2.308263  -0.265223
O    9.468680   0.097245  -0.361901
C    8.037251  -2.032967  -0.192752
N    5.623560  -2.190759   0.033939
H    4.478613   4.104239   0.042198
H    9.275268   3.952891  -0.401756
H    9.258090  -3.714824  -0.277242

