%chk=mol_2737.chk
# wB97XD/Def2SVP opt pop=full gfinput

C 6 H 10 O 1

1 2
C    3.557372  -0.358424   2.527943
C    4.352738   0.519618  -0.093863
C    5.657500   3.065967  -0.039439
C    4.325904   5.196274  -0.425869
C    8.422396   3.043196   0.321650
C    9.470174   3.824050   2.858740
O    9.686925   1.282670   1.959665
H    2.622354  -2.199622   2.406680
H    2.228781   0.974040   3.389734
H    5.181572  -0.554786   3.792831
H    2.674907   0.602709  -1.309996
H    5.605759  -0.890666  -0.952819
H    2.296886   5.155891  -0.727526
H    5.239020   7.033315  -0.440627
H    9.471024   3.616086  -1.346940
H    8.183704   4.158607   4.413682
H   11.166618   4.964367   2.892453

