%chk=mol_4219.chk
# wB97XD/Def2SVP opt freq pop=full gfinput

C 4 H 6 N 2 O 1

1 2
C    0.94232965  -0.10267996  -0.00377000
C    2.40098906   0.09950996  -0.00471000
C    3.23292875   1.19010949  -0.00142000
N    2.88332891   2.48796916   0.00452000
C    4.52848816   0.64143974  -0.00591000
N    4.50463820  -0.69409972  -0.01113000
O    3.15957880  -1.03452957  -0.01052000
H    0.40660983   0.85128969   0.00899000
H    0.63569981  -0.67468977   0.87743968
H    0.63179976  -0.65339977  -0.89702970
H    3.56438875   3.24135876   0.01576000
H    1.91744924   2.79912877   0.01676999
H    5.48282766   1.14565969  -0.00562000

