%chk=mol_4079.chk
# wB97XD/Def2SVP opt freq pop=full gfinput

C 5 H 9 N 1 O 1

1 2
C    0.91530961   0.01193000   0.15163994
C    2.44106913   0.00433000   0.12010995
C    2.96960878   1.21642959  -0.63970977
O    4.33786869   0.97645968  -0.96706963
N    4.44483852   0.01049000  -1.99055934
C    3.79745865  -1.07749963  -1.71524942
C    2.99790883  -1.29885948  -0.46028981
H    0.53916979   0.94088966   0.59414977
H    0.53468984  -0.82317972   0.74993974
H    0.49692979  -0.07678997  -0.85741967
H    2.79419899   0.07021997   1.15746963
H    2.91830897   2.11457920  -0.01457999
H    2.40324903   1.42050946  -1.55750942
H    3.86896849  -1.92330921  -2.41819906
H    2.20062923  -2.01461911  -0.69049978
H    3.66199851  -1.78918934   0.26141989

