%chk=mol_2966.chk
# wB97XD/Def2SVP opt freq pop=full gfinput

C 5 H 6 O 2

1 2
C    2.49534893  -0.99791962   0.72505975
C    3.29867864  -0.00187000   1.12600958
C    3.34829879   1.35709941   0.47705981
C    2.87389898   2.37520909   1.48272943
O    3.59709883   3.21605873   2.01044917
C    4.75343800   1.61681938  -0.01244999
O    5.15569782   1.26481950  -1.12166965
H    2.51202917  -1.96128929   1.22712958
H    1.81711924  -0.88957965  -0.11631995
H    3.96770859  -0.17996992   1.96799922
H    2.67795897   1.42024946  -0.38793984
H    1.79974937   2.32599926   1.73485935
H    5.45419788   2.06210923   0.71509975

