%chk=mol_3568.chk
# wB97XD/Def2SVP opt freq pop=full gfinput

C 6 H 8 O 1

1 2
O    0.85076970  -0.00505000   0.21555993
C    2.08054924  -0.01320999   0.09042996
C    2.81887889   1.29029953  -0.11341996
C    4.33814812   1.26057947  -0.00799000
C    4.98313808  -0.07969997  -0.02247999
C    4.30456829  -1.23420954   0.00332000
C    2.82145882  -1.33685946   0.05012998
H    2.43244910   2.00061917   0.63193971
H    2.53231907   1.66995931  -1.09862959
H    4.64683819   1.77647936   0.90828967
H    4.75346851   1.85285926  -0.83530968
H    6.07151747  -0.10540996  -0.04475998
H    4.85935831  -2.17136931  -0.00160000
H    2.47671914  -1.88771927  -0.83081967
H    2.53665924  -1.89745927   0.94672966

