%chk=mol_6863.chk
# wB97XD/Def2SVP opt pop=full gfinput

C 6 H 11 N 1

1 2
C    1.851308   0.008428  -0.147002
C    4.722161  -0.031162   0.072301
N    5.549294  -2.361383   1.378669
C    6.442379  -1.591263   3.910032
C    6.665839   1.209992   3.808913
C    7.777546   2.678706   5.922081
C    5.696787   2.087108   1.649636
H    1.177413  -1.595798  -1.269839
H    1.209822   1.744312  -1.076615
H    0.930974  -0.086285   1.707783
H    5.567020   0.039250  -1.817085
H    7.076854  -3.040456   0.423790
H    8.258595  -2.489431   4.327851
H    5.066053  -2.167233   5.344429
H    7.790623   4.707043   5.513182
H    9.729482   2.086428   6.263762
H    6.689252   2.384400   7.655866
H    5.583347   4.052404   1.110157

