%chk=mol_3774.chk
# wB97XD/Def2SVP opt freq pop=full gfinput

C 5 H 10 O 2

1 2
O    0.52533978   0.72962970   0.54096979
C    1.43883944   1.30775952  -0.38243985
C    2.60091901   1.95381927   0.35851985
O    3.47965860   2.56104898  -0.58746976
C    4.59702826   3.22027874   0.03648999
C    5.25002813   4.28315878  -0.80069971
C    4.40284824   4.67087841   0.37599987
H   -0.20848992   0.36386985   0.01762999
H    0.91198963   2.05210924  -0.98823959
H    1.80436933   0.52804983  -1.05901957
H    3.14313889   1.19864953   0.94044966
H    2.22502899   2.70859885   1.05951965
H    5.25125790   2.62901902   0.67012978
H    4.85444832   4.46111822  -1.79382932
H    6.32334757   4.40339851  -0.71873975
H    4.90056849   5.05330801   1.25887954
H    3.43552876   5.11679792   0.17892992

