%chk=mol_5727.chk
# wB97XD/Def2SVP opt freq pop=full gfinput

C 6 H 13 N 1

1 2
C    0.94118965   0.01741999  -0.02770999
C    2.45662904  -0.04623998   0.03016999
C    3.14840889   1.00021958   0.94547963
C    4.20938826  -0.07584997   1.27129948
C    3.13645887  -1.14186966   0.91927963
C    2.39630890  -1.77301931   2.08031917
N    3.74601865  -2.14392924   0.04232999
H    0.54281980  -0.83985966  -0.57893974
H    0.61634976   0.92763966  -0.54161978
H    0.49277979   0.01935999   0.96994966
H    2.85941887   0.00675000  -0.99417961
H    2.55567908   1.30859947   1.81439924
H    3.52402854   1.89467919   0.44144982
H    5.07997799  -0.02840999   0.60449976
H    4.56829834  -0.07286997   2.30528903
H    1.97095919  -1.01454961   2.74659896
H    3.06539893  -2.39731908   2.68325901
H    1.57260942  -2.40468907   1.73002934
H    4.28699875  -1.76628935  -0.73528969
H    3.07429886  -2.78918910  -0.37228987

