%chk=mol_4875.chk
# wB97XD/Def2SVP opt freq pop=full gfinput

C 4 H 7 N 1 O 2

1 2
C    1.11766958  -0.55084980   0.44435984
C    2.53460908  -0.67686975  -0.04815998
O    2.92773890  -1.70407927  -0.60131979
C    3.41279864   0.53967977   0.09090997
C    4.86400795   0.19323993   0.21454993
N    5.53556824   0.55366981   1.26037955
O    6.85715771   0.11503996   1.11766958
H    1.11831951  -0.22651991   1.48741949
H    0.61964977  -1.52215946   0.38401985
H    0.57875979   0.16927995  -0.17482994
H    3.10322881   1.11161959   0.97170967
H    3.27554870   1.16022956  -0.80003965
H    5.32854795  -0.36135986  -0.61970973
H    7.26590729   0.39817986   1.95733929

