%chk=mol_3138.chk
# wB97XD/Def2SVP opt pop=full gfinput

C 6 H 12 O 1

1 2
C    5.784659  -2.244484  -0.848052
C    4.612670   0.160173   0.204563
O    3.796309  -0.285727   2.728122
C    6.461143   2.311003   0.213728
C    6.594199   4.117789  -1.991715
C    5.520986   4.992014   0.496828
C    6.938867   6.827184   2.094270
H    6.418398  -1.978222  -2.798552
H    4.419049  -3.798501  -0.795537
H    7.411808  -2.839314   0.286407
H    2.931173   0.638633  -0.905160
H    5.297318  -0.551328   3.753279
H    8.224164   1.817992   1.136047
H    5.290534   3.867740  -3.553384
H    8.441350   4.800528  -2.558349
H    3.496239   5.294918   0.614992
H    8.984476   6.542818   1.977409
H    6.373423   6.629745   4.073173
H    6.522408   8.761243   1.493829

