%chk=mol_1376.chk
# wB97XD/Def2SVP opt freq pop=full gfinput

C 7 H 8

1 2
C    0.98591959   0.06046998   0.00466000
C    2.46688914  -0.03007999   0.00278000
C    3.23840880  -1.13691962  -0.00008000
C    4.61450863  -0.68015975  -0.00082000
C    5.69696760  -1.46030939  -0.00369000
C    4.61179829   0.76599973   0.00131000
C    3.32484865   1.14884961   0.00372000
H    0.52565980  -0.93301964   0.00098000
H    0.63139975   0.59775978  -0.88092971
H    0.63324976   0.59041977   0.89538968
H    2.91047883  -2.16361928  -0.00137000
H    5.61271763  -2.54180908  -0.00535000
H    6.69643784  -1.03861964  -0.00405000
H    5.47995758   1.40392947   0.00140000
H    2.96274877   2.16594911   0.00571000

