%chk=mol_0846.chk
# wB97XD/Def2SVP opt pop=full gfinput

C 4 H 4 O 2

1 2
O    2.660621  -0.472488  -0.140199
C    0.903232  -2.405206  -0.145925
C   -1.584857  -1.963407  -0.157036
O   -2.570595   0.455972  -0.163575
C   -0.812337   2.389200  -0.157811
C    1.675186   1.947665  -0.146699
H    1.782768  -4.244589  -0.140388
H   -3.043479  -3.388487  -0.161912
H   -1.692722   4.228848  -0.163329
H    3.135150   3.371366  -0.141805

