%chk=mol_0826.chk
# wB97XD/Def2SVP opt freq pop=full gfinput

C 6 H 10

1 2
C    0.50680977   0.19134992   0.00920000
C    1.95269930  -0.08852997   0.25858989
C    2.94412899   0.76469976  -0.04241998
C    4.40007830   0.48737982   0.19961992
C    4.99481821   1.49614942   1.13860965
C    5.99659777   2.32721925   0.82115966
H    0.09422997  -0.55804974  -0.67353976
H    0.34533986   1.18061960  -0.43117985
H   -0.04997998   0.14250995   0.95057964
H    2.18444920  -1.04926956   0.71279973
H    2.70950890   1.72319937  -0.50271982
H    4.92124844   0.49591982  -0.76533973
H    4.54335833  -0.51245981   0.62664974
H    4.57699823   1.53342938   2.14254928
H    6.44944763   2.32535934  -0.16549994
H    6.38427782   3.03223872   1.54993951

