%chk=mol_2730.chk
# wB97XD/Def2SVP opt freq pop=full gfinput

C 6 H 12 O 1

1 2
C    0.80132973  -0.19075993  -0.10655995
C    2.33064914  -0.15582995  -0.12527996
C    2.85591912  -1.01397955  -1.27907956
C    2.82058883   1.29938960  -0.21845992
C    4.30985832   1.41460943  -0.10038996
C    5.17506790   1.69352937  -1.30283952
O    4.81092834   2.72919893  -0.37974983
H    0.40890986   0.38848984   0.73598975
H    0.43594986  -1.21772957  -0.00371000
H    0.38349986   0.22664991  -1.02889967
H    2.69263911  -0.59342974   0.81437969
H    2.56302905  -0.59788978  -2.24851918
H    2.46005893  -2.03279924  -1.21422946
H    3.94709849  -1.08596957  -1.25400949
H    2.37389922   1.88021922   0.59770977
H    2.47136903   1.75308931  -1.15414953
H    4.72695827   0.89900964   0.75409973
H    4.72084856   1.71773934  -2.28408909
H    6.20160770   1.34996951  -1.28690946

