%chk=mol_3763.chk
# wB97XD/Def2SVP opt freq pop=full gfinput

C 5 H 8 O 2

1 2
O    5.02625799  -1.04131961  -0.58052975
C    3.65470862  -1.25398946  -0.28661990
C    2.91821885   0.04083999  -0.18310994
C    3.44387865   1.26113951  -0.34402987
O    2.68245888   2.39676905  -0.22970992
C    3.27745891   3.61997867  -0.40126985
C    2.58595920   4.75765800  -0.31093991
H    5.43998814  -1.91981924  -0.62850976
H    3.58109856  -1.79836929   0.65979975
H    3.21805882  -1.86539936  -1.08242953
H    1.85836923  -0.03484999   0.04518998
H    4.48907804   1.42020941  -0.57292980
H    4.33732843   3.59991884  -0.61272973
H    1.52246940   4.74633837  -0.09747997
H    3.07118893   5.71711779  -0.44912985

