%chk=mol_4130.chk
# wB97XD/Def2SVP opt pop=full gfinput

C 4 H 5 N 1 O 2

1 2
C    1.742120  -0.183757  -0.010582
C    4.517277   0.069485  -0.005631
C    5.986633   2.211433  -0.007275
O    5.585067   4.668210  -0.013058
O    8.459756   1.527352  -0.001380
C    8.358864  -1.047324   0.003496
N    6.072597  -2.021534   0.001191
H    0.812960   1.663847   0.007918
H    1.113994  -1.236580   1.654588
H    1.117263  -1.201828  -1.698543
H    7.277619   5.386400  -0.011395
H   10.148150  -2.032476   0.008712

