%chk=mol_1263.chk
# wB97XD/Def2SVP opt freq pop=full gfinput

C 6 H 9 N 1

1 2
C    0.95993966   0.02135999   0.20409992
C    2.44934893  -0.05761998  -0.01762999
C    3.02130890  -1.22539961  -0.36722985
C    3.27502894   1.20211947   0.16688994
N    2.86277890   2.24682927  -0.76044971
C    3.17664862   1.69653940   1.54999936
C    3.10285878   2.10546923   2.67664909
H    0.49741983   0.71530974  -0.50451982
H    0.73206973   0.35528985   1.22094965
H    0.47509983  -0.95166963   0.06730997
H    2.43636918  -2.13118911  -0.49706981
H    4.09228849  -1.30961955  -0.52857983
H    4.33041811   0.98515964  -0.03977998
H    1.92436934   2.55264926  -0.51723981
H    2.81130886   1.84639931  -1.69381940
H    3.04037881   2.47263885   3.67526865

