%chk=mol_5909.chk
# wB97XD/Def2SVP opt freq pop=full gfinput

C 4 H 6 N 2 O 1

1 2
N    1.31245959   0.02376999   0.01728999
N    2.68321896   0.40249985   0.01558999
C    3.74435854  -0.60074979  -0.07810997
C    3.44416881  -1.82242930   0.68523973
C    3.20348859  -2.82232904   1.30715942
C    2.98875880   1.73691928  -0.21487993
O    4.10992861   2.19044900  -0.41238984
H    1.11203969  -0.38635984   0.93407965
H    1.18949950  -0.74013972  -0.65239978
H    4.68370819  -0.16183995   0.27674991
H    3.87731862  -0.83409965  -1.14063966
H    2.99527884  -3.70853853   1.86127925
H    2.09325933   2.38134909  -0.20038992

