%chk=mol_5699.chk
# wB97XD/Def2SVP opt freq pop=full gfinput

C 5 H 7 N 1 O 1

1 2
N    1.17349958   0.24360991   0.00272000
C    2.58405900  -0.11786996  -0.02987999
C    2.89619899  -0.82492971  -1.27646959
C    3.14657879  -1.41269958  -2.29439926
C    3.40645862   1.13155961  -0.07630997
C    3.72449851   1.89741933   1.18513954
O    4.69264841   1.04608953   0.55808979
H    0.95594966   0.63833976   0.91436964
H    0.62349975  -0.60993981  -0.07673997
H    2.83226895  -0.73785967   0.83922970
H    3.36949873  -1.92815936  -3.19827890
H    3.31772876   1.69607937  -0.99715966
H    3.30107880   1.56654942   2.12418914
H    3.87520862   2.96675873   1.10720968

