%chk=mol_2860.chk
# wB97XD/Def2SVP opt pop=full gfinput

C 6 H 14 O 1

1 2
C    1.722788   3.699498   1.960213
C    4.586460   3.874316   2.148713
C    5.860570   2.824082  -0.224575
C    8.770370   2.877165  -0.096697
C    9.868717   1.347923  -2.302008
C    9.811950   5.585350  -0.119468
O   12.495172   5.582553   0.041687
H    0.844556   4.420542   3.689879
H    1.110006   1.740268   1.698278
H    1.017240   4.819274   0.369101
H    5.222315   2.817412   3.811294
H    5.101996   5.855789   2.441980
H    5.217005   3.881611  -1.887685
H    5.234012   0.864682  -0.489798
H    9.389067   1.945190   1.650733
H    9.354107   2.187074  -4.121738
H    9.160712  -0.596039  -2.269618
H   11.932298   1.255440  -2.196296
H    9.100524   6.690368   1.474478
H    9.281163   6.566458  -1.861550
H   12.953506   4.727547   1.602034

