%chk=mol_5062.chk
# wB97XD/Def2SVP opt pop=full gfinput

C 5 H 9 N 1 O 1

1 2
C    1.943281   0.025228   0.024491
N    4.658931  -0.314583   0.441761
C    5.543001  -2.927734   0.196021
C    6.360232   1.681648   0.303188
C    5.889955   4.161233   0.143071
C    8.000931   5.975635   0.027514
O    7.626935   8.254871  -0.139632
H    1.213866   1.614431   1.131020
H    0.873904  -1.648805   0.606526
H    1.564259   0.371407  -1.980017
H    4.205605  -4.254246   1.053031
H    7.359539  -3.192088   1.153413
H    5.771545  -3.417305  -1.801193
H    8.310940   1.022928   0.354683
H    4.009110   4.956582   0.092597
H    9.922026   5.172577   0.095507

