%chk=mol_0717.chk
# wB97XD/Def2SVP opt freq pop=full gfinput

C 5 H 12 O 1

1 2
C    1.11267960  -0.19797993   0.01597999
C    2.63178897  -0.12974995   0.02242999
C    3.12627888   1.31926942   0.02752999
C    4.65599823   1.40709937   0.01083000
C    5.13181829   2.85269904  -0.03933999
O    5.19515800   0.78926975   1.17617965
H    0.78008974  -1.24080956   0.01161000
H    0.70103973   0.29352990  -0.87146968
H    0.69444978   0.28803989   0.90342969
H    3.01862884  -0.65055978  -0.86090964
H    3.00729895  -0.66132975   0.90384966
H    2.73877907   1.81806934   0.92518967
H    2.71918917   1.84752929  -0.84345973
H    5.05073833   0.86907965  -0.85789967
H    4.78599834   3.41157866   0.83727968
H    4.77313805   3.35839868  -0.94090962
H    6.22627783   2.89444900  -0.02687999
H    4.83698845   1.25241947   1.95265925

