%chk=mol_3059.chk
# wB97XD/Def2SVP opt pop=full gfinput

C 6 H 10 O 1

1 2
C    1.819863  -0.386487   0.491650
C    4.526008   0.271402  -0.259743
C    5.650035  -1.701131  -2.024388
O    4.413966  -3.176573  -3.319342
C    4.764415   2.856567  -1.484663
C    3.263500   3.354321  -3.853416
C    6.264121   4.653262  -0.493767
H    1.033038   1.045774   1.761867
H    1.767858  -2.208202   1.475574
H    0.569847  -0.551706  -1.150163
H    5.674262   0.193565   1.466938
H    7.735046  -1.710032  -2.121085
H    3.751711   1.993397  -5.331730
H    3.629049   5.245105  -4.613729
H    1.234388   3.226216  -3.477021
H    7.352943   4.338906   1.217305
H    6.435141   6.506214  -1.360716

