%chk=mol_3823.chk
# wB97XD/Def2SVP opt freq pop=full gfinput

C 4 H 4 N 2 O 1

1 2
C    1.80040932   0.45635983  -0.79434973
C    2.53281903   0.07636997   0.51327980
C    3.32851887   1.31741953   0.32762986
N    3.58863854   2.39291906   1.05442953
O    3.23881888   3.44934869   0.17295994
N    2.50457907   2.95662904  -0.93756968
C    2.68613887   1.64877939  -0.84289974
H    0.73261970   0.68789977  -0.73955971
H    1.96130931  -0.24596991  -1.61940944
H    3.12853885  -0.84019971   0.44040984
H    1.95131934   0.04047999   1.43895948

