%chk=mol_5822.chk
# wB97XD/Def2SVP opt freq pop=full gfinput

C 4 H 8 N 2 O 1

1 2
N    0.90807962  -0.06365997   0.22962992
C    2.25185919   0.02223999   0.00994000
N    2.90463901  -1.05359960  -0.30860987
C    3.01690888   1.30410957   0.12706995
C    2.36767912   2.47772908   0.04762998
C    4.50318861   1.19613945   0.32703990
O    5.11571789   0.55214983  -0.78387970
H    0.51196980   0.65981978   0.81935966
H    0.54774982  -0.98082966   0.46027982
H    2.24743915  -1.83341932  -0.39042985
H    1.30202961   2.54660916  -0.13729995
H    2.90969896   3.41633868   0.11685995
H    4.72899818   0.62259978   1.23274946
H    4.96931791   2.18063927   0.43757984
H    4.58869839  -0.26923987  -0.90801966

