%chk=mol_4871.chk
# wB97XD/Def2SVP opt freq pop=full gfinput

C 4 H 10 N 2 O 1

1 2
C    0.76153970   2.10690928   0.19306992
C    2.18475914   2.09605932   0.71549976
O    3.03417897   1.57754946  -0.30737987
C    4.40021801   1.54818940   0.08938996
C    5.03224802   2.91295910  -0.05619998
N    5.46927786   3.55788875   0.98039961
N    5.99522781   4.76388788   0.66853976
H    0.07066997   2.48178887   0.95300961
H    0.45127982   1.09997964  -0.10268996
H    0.68433970   2.73971891  -0.69717973
H    2.24862909   1.46036947   1.60568941
H    2.48777914   3.11534882   0.97918963
H    4.92646790   0.87312967  -0.59351981
H    4.51020813   1.16598964   1.10939968
H    5.08864784   3.32088876  -1.08161962
H    6.41803741   5.17608786   1.50447953
H    5.26624775   5.42539835   0.38745984

