%chk=mol_4695.chk
# wB97XD/Def2SVP opt pop=full gfinput

C 5 H 13 N 1 O 1

1 2
C    3.407554   1.428406  -2.076469
C    6.221715   1.905846  -1.739739
N    6.611736   4.341362  -0.485112
C    9.329767   4.855217  -0.168186
C    9.817410   7.487756   0.983451
C    9.047291   9.644482  -0.764016
O    8.480807   7.726391   3.321817
H    3.100190  -0.404401  -2.985333
H    2.542060   2.883155  -3.267355
H    2.423366   1.409055  -0.256096
H    7.130050   1.897739  -3.600835
H    7.042423   0.372578  -0.613934
H    5.813119   4.252451   1.269102
H   10.310138   4.723238  -1.988899
H   10.127704   3.422974   1.100331
H   11.835411   7.659268   1.413912
H    7.011810   9.630384  -1.139732
H   10.055780   9.546556  -2.565965
H    9.464995  11.466103   0.126612
H    6.699212   7.840889   2.876314

