%chk=mol_3858.chk
# wB97XD/Def2SVP opt freq pop=full gfinput

C 4 H 4 N 2 O 1

1 2
C    2.14361906   0.44502982   0.69818974
N    1.92132938   0.30411988  -0.73685968
C    2.99764895   1.08509958  -0.99321961
N    3.41420865   2.05688930  -1.78370941
O    4.04404831   2.95731878  -0.87772971
C    3.80590868   2.53339911   0.41897985
C    3.23915863   1.31357956   0.32096988
H    2.42006898  -0.51119977   1.15381956
H    1.32140946   0.90468967   1.25137949
H    2.00621915  -0.65859973  -1.05038965
H    3.99190855   3.26661873   1.18843961

