%chk=mol_4361.chk
# wB97XD/Def2SVP opt freq pop=full gfinput

C 5 H 9 N 1 O 1

1 2
C    0.87409967   0.03543998   0.12155996
C    2.34724927  -0.24562991  -0.03057999
C    2.69141889  -1.71066928  -0.04185998
C    3.22021866   0.77038974  -0.14110994
N    4.57246828   0.61951971  -0.28087988
C    5.46961784   1.64696944  -0.39351985
O    6.67509747   1.47391951  -0.51669979
H    0.65318978   1.10801959   0.12855996
H    0.50298983  -0.38603985   1.06146955
H    0.31547987  -0.41325983  -0.70634979
H    2.16966915  -2.21202922  -0.86395967
H    2.37875915  -2.17619920   0.89878964
H    3.75824857  -1.90971935  -0.16532993
H    2.86322880   1.79925931  -0.12142996
H    4.98955822  -0.30191988  -0.30784988
H    5.01302814   2.64989877  -0.36376986

