%chk=mol_6692.chk
# wB97XD/Def2SVP opt freq pop=full gfinput

C 4 H 3 N 1 O 1 S 1

1 2
O    2.72987914  -1.16371965   0.14331995
C    2.18671918  -0.06888998   0.02746999
C    2.88334894   1.21166945   0.01036000
C    2.24348903   2.43220925  -0.12183996
S    3.38674879   3.71158862  -0.09917996
C    4.64178848   2.56017900   0.08343997
N    4.26760864   1.30150950   0.12785995
H    1.09074962  -0.00344000  -0.07397997
H    1.18749952   2.63609886  -0.22827992
H    5.68039799   2.85641885   0.15746994

