%chk=mol_3015.chk
# wB97XD/Def2SVP opt pop=full gfinput

C 5 H 10 O 2

1 2
C    2.638908  -1.171252   0.432388
C    5.508816  -1.040086   0.482882
C    6.458347   1.581701  -0.281626
C    9.339423   1.758579  -0.235649
O   10.393475  -0.007710  -1.970323
C   10.154065   4.438419  -0.890779
O   11.398563   4.942371  -2.785626
H    1.997252  -3.059523   0.984396
H    1.911345  -0.776885  -1.465010
H    1.808241   0.197930   1.743783
H    6.264499  -2.478546  -0.799543
H    6.177666  -1.500537   2.386932
H    5.648750   3.014113   0.979861
H    5.774096   2.008061  -2.194539
H   10.075925   1.321599   1.647274
H   11.055616   0.979691  -3.389772
H    9.570725   5.921287   0.452684

