%chk=mol_1572.chk
# wB97XD/Def2SVP opt freq pop=full gfinput

C 5 H 12 N 2

1 2
C    3.23902869  -1.26554954  -1.03408957
C    3.24411893  -0.18222994   0.02972999
N    4.11641836   0.90390968  -0.42012984
C    4.19458818   1.87239933   0.42408985
N    4.93865824   3.01878881   0.27260989
C    4.70088816   4.16443872   1.13464952
C    5.54672813   3.30567884  -1.01988959
H    2.59039903  -2.09401917  -0.73382974
H    4.24803829  -1.65924942  -1.19571948
H    2.87664890  -0.87323964  -1.99007928
H    3.60796857  -0.60486978   0.97377962
H    2.22079921   0.18200994   0.17917994
H    3.64138865   1.85103929   1.38185942
H    4.53839827   3.84904838   2.17077899
H    3.81883860   4.71807814   0.79720974
H    5.55996799   4.84333801   1.13349950
H    6.05955744   2.42429900  -1.41969943
H    6.29520798   4.10076857  -0.93540967
H    4.78403807   3.62555861  -1.73738933

