%chk=mol_5686.chk
# wB97XD/Def2SVP opt freq pop=full gfinput

C 4 H 9 N 1 O 2

1 2
N    1.99207926  -0.52282983  -1.31741953
C    2.29026914   0.01028000   0.01613999
C    3.13582873   1.28166950  -0.08237997
O    4.37132835   0.99722964  -0.80317968
C    2.36996913   2.55025911  -0.51538980
O    2.89012885   3.28673887   0.62504977
C    3.30082870   2.04279923   1.24976945
H    1.61558938  -1.46538949  -1.22623956
H    2.88451910  -0.62589973  -1.80977941
H    2.83548903  -0.74987972   0.58783978
H    1.34723949   0.20026992   0.54067981
H    4.81148815   1.86383927  -0.87744969
H    1.27671945   2.49975896  -0.48933980
H    2.69481897   2.99543881  -1.46014941
H    4.32434797   2.10476923   1.63024950
H    2.62365890   1.76322925   2.06310916

