%chk=mol_5848.chk
# wB97XD/Def2SVP opt freq pop=full gfinput

C 5 H 9 N 1 O 1

1 2
N    2.18962932   0.98058963  -1.65022945
C    2.32976913   0.00642000  -0.70506978
O    1.86383927  -1.11319959  -0.87846965
C    3.11495876   0.40733984   0.52715981
C    4.55968857   0.01783999   0.42700985
C    5.59747791   1.00705957  -0.03890999
C    5.55974770   0.58185983   1.40309942
H    2.75380898   1.81835938  -1.63898945
H    1.74418938   0.71229976  -2.51821899
H    2.65674901  -0.09316996   1.38797951
H    3.00237894   1.48504949   0.69658971
H    4.68075800  -1.02436960   0.14696994
H    5.29529810   2.02154922  -0.27098989
H    6.40954781   0.63603973  -0.65488976
H    6.34463739  -0.07650997   1.75960934
H    5.22175837   1.30290961   2.13882923

