%chk=mol_5322.chk
# wB97XD/Def2SVP opt pop=full gfinput

C 5 H 11 N 1 O 1

1 2
C    2.341219  -0.249482   1.266891
O    4.737411  -0.383312   0.048245
C    5.979112   1.886268   0.084509
C    8.508227   2.087429   0.055482
C   10.228634  -0.177426  -0.003798
C    9.778369   4.630188   0.000964
N   11.311730   5.028448   2.250040
H    1.496833  -2.135882   1.231289
H    1.074461   1.045982   0.265677
H    2.554003   0.331779   3.242449
H    4.741039   3.517215   0.080540
H    9.191458  -1.964824  -0.093145
H   11.414796  -0.238446   1.689831
H   11.459753  -0.094808  -1.665132
H    8.387530   6.159109  -0.141352
H   10.980953   4.759880  -1.679891
H   10.169240   4.968222   3.798255
H   12.057133   6.800860   2.197733

