%chk=mol_1625.chk
# wB97XD/Def2SVP opt freq pop=full gfinput

C 6 H 9 N 1

1 2
C    1.18501949  -0.16121995   0.00261000
N    2.64397883  -0.11756996  -0.03953999
C    3.19796872  -0.55338979  -1.31706953
C    3.16794896   0.91362965  -0.94078964
C    4.42526865   1.63077939  -0.55450982
C    4.98725843   2.09808922  -1.82808924
C    5.45589781   2.48469901  -2.86489892
H    0.81841969   0.55601984   0.74424976
H    0.85748971  -1.15817952   0.31493989
H    0.69792974   0.06690998  -0.95341969
H    2.52294898  -0.90078968  -2.08972907
H    4.14166832  -1.08326960  -1.26490951
H    2.44778919   1.56355941  -1.42723954
H    5.13234806   0.97608960  -0.03422999
H    4.19109821   2.47501922   0.10151996
H    5.87366772   2.82771897  -3.78358865

