%chk=mol_1250.chk
# wB97XD/Def2SVP opt freq pop=full gfinput

C 6 H 13 N 1

1 2
C    1.28414953   0.35451987   0.09439997
C    2.77788877  -0.01315999  -0.01561999
C    3.13910890  -0.90888965   1.18949950
C    2.97760892  -0.83495969  -1.30526948
N    3.50219870   1.26039958  -0.20758991
C    3.95739841   1.96734929   0.97783965
C    4.93140841   1.26521945   0.05995998
H    0.94670969   0.93663967  -0.77182972
H    1.08459961   0.94825959   0.99410957
H    0.65823978  -0.54413980   0.14516994
H    2.94617891  -0.41406986   2.14637923
H    4.18441820  -1.23139954   1.17084956
H    2.53060913  -1.82186925   1.18396962
H    2.67736888  -0.26858991  -2.19515920
H    2.37728906  -1.75211942  -1.28673959
H    4.02584839  -1.12873960  -1.43395948
H    3.78517866   1.55816936   1.96257937
H    3.90641856   3.04892898   0.92714965
H    5.53051805   1.87723923  -0.60430980
H    5.42195797   0.36695987   0.40635985

