%chk=mol_3974.chk
# wB97XD/Def2SVP opt freq pop=full gfinput

C 4 H 8 N 2 O 1

1 2
C    0.82194972   0.29275990  -0.24443990
C    1.93792927  -0.69032973  -0.15047994
C    2.71772909  -1.07303953  -1.37785947
N    3.30804873  -0.21574992  -0.34760988
N    4.14653826  -0.99052966   0.44797984
C    4.57208872  -0.50052983   1.65640938
O    5.46358824  -1.01769960   2.31768918
H    0.70683974   0.82519966   0.70581973
H   -0.11852995  -0.22608991  -0.45809984
H    0.98529965   1.03600955  -1.03312957
H    1.74741936  -1.44988954   0.59953976
H    2.49011898  -0.57997984  -2.31501913
H    3.04972887  -2.09940910  -1.47573948
H    4.74062824  -1.70216942   0.03550999
H    4.02472878   0.39810985   1.98817921

