%chk=mol_3800.chk
# wB97XD/Def2SVP opt pop=full gfinput

C 5 H 4 O 2

1 2
O    2.334813  -0.059753  -1.510439
C    4.412359  -0.087740  -0.018973
O    5.089618  -1.959911   1.140847
C    5.803349   2.363178   0.000000
C    4.525043   4.551084   0.163801
C    8.460304   2.363178   0.000000
C   10.709380   2.363178   0.000000
H    2.199811   1.443278  -2.565492
H    2.480870   4.622951   0.314602
H    5.515090   6.349026   0.249576
H   12.722638   2.340294   0.012529

