%chk=mol_3499.chk
# wB97XD/Def2SVP opt pop=full gfinput

C 7 H 14

1 2
C    4.035643  -1.846074  -1.346657
C    3.727409   0.743777  -0.144413
C    6.110505   2.267350  -0.322954
C    6.341165   4.402495  -2.197222
C    6.092931   4.974232   0.583302
C    8.297409   6.003811   2.034933
C    8.404387   4.923436   4.695686
H    2.263552  -2.906626  -1.239226
H    5.499122  -2.940300  -0.373164
H    4.583323  -1.684766  -3.335367
H    3.226840   0.506673   1.850911
H    2.151869   1.735071  -1.053277
H    7.784047   1.154339   0.085529
H    4.743704   4.832446  -3.406175
H    8.157475   4.680871  -3.104707
H    4.316097   5.762947   1.235994
H    8.125198   8.065824   2.137545
H   10.081122   5.593230   1.064332
H    6.641461   5.279838   5.716441
H    9.958781   5.777271   5.758468
H    8.706100   2.877184   4.650975

