%chk=mol_0726.chk
# wB97XD/Def2SVP opt pop=full gfinput

C 6 H 4

1 2
C    1.889726   0.000000   0.000000
C    4.138803   0.000000   0.000000
C    6.795758   0.000000   0.000000
C    8.037345   2.150489   0.000000
C   10.694301   2.150489   0.000000
C   12.943377   2.150489   0.000000
H   -0.122152  -0.000718  -0.000000
H    7.764450  -1.809224  -0.000000
H    7.068653   3.959713  -0.000000
H   14.955255   2.151207  -0.000000

