%chk=mol_5777.chk
# wB97XD/Def2SVP opt freq pop=full gfinput

C 5 H 7 N 1 O 1

1 2
N    1.15652955   3.25220871   0.64810973
C    2.26993918   2.96663904   0.81110972
C    3.67687845   2.61971903   1.05799961
O    4.25865841   2.02184939  -0.10431996
C    5.63748741   1.65064943   0.08592997
C    6.42023754   1.47236943  -1.18375945
C    6.65966749   2.67464900  -0.31711987
H    3.74464869   1.91425931   1.89420927
H    4.24211836   3.52145863   1.31712949
H    5.88022757   0.97365963   0.90017968
H    5.90278769   1.61692941  -2.12517929
H    7.17945719   0.70017976  -1.20720959
H    7.58506727   2.71772909   0.24446991
H    6.31417751   3.63415861  -0.68376970

