%chk=mol_1359.chk
# wB97XD/Def2SVP opt pop=full gfinput

C 6 H 13 N 1

1 2
C    2.527320  -1.486421   2.889467
C    4.657117  -1.336773   0.963571
C    5.607290   1.374303   0.651578
N    7.579503   1.457697  -1.285184
C    8.637636   3.995996  -1.604321
C   11.140465   4.600765  -0.409447
C   10.949848   4.306365  -3.223684
H    1.885493  -3.440964   3.095560
H    0.911850  -0.340774   2.294071
H    3.153197  -0.815455   4.742589
H    3.971864  -2.070138  -0.850925
H    6.211246  -2.565965   1.573273
H    6.356850   2.055398   2.458024
H    4.033186   2.606669   0.108414
H    6.861539   0.813300  -2.953415
H    7.262237   5.522252  -1.721465
H   12.097498   3.125777   0.641127
H   11.411451   6.483424   0.346557
H   11.089140   5.991887  -4.377172
H   11.786468   2.638379  -4.066842

