%chk=mol_1090.chk
# wB97XD/Def2SVP opt pop=full gfinput

C 4 H 11 N 1 O 1

1 2
N    4.216470  -1.788569   1.947193
C    4.162783  -0.214616  -0.321499
C    5.853200   2.116474  -0.067633
C    8.704910   1.612163  -0.230641
C    9.864182   0.385353   2.108084
O    9.337798  -2.240799   2.203213
H    3.063794  -3.314580   1.662430
H    3.404890  -0.814018   3.405419
H    2.211282   0.389208  -0.657738
H    4.749467  -1.342083  -1.955035
H    5.412478   3.140649   1.681554
H    5.364233   3.401847  -1.622198
H    9.638700   3.440417  -0.510226
H    9.101602   0.457465  -1.903729
H    9.198658   1.277512   3.851545
H   11.921489   0.585664   2.042189
H    7.482616  -2.395379   2.247602

