%chk=mol_5526.chk
# wB97XD/Def2SVP opt freq pop=full gfinput

C 6 H 9 N 1

1 2
C    1.04323959   0.00836000   0.01501999
C    2.37454915  -0.05614998   0.00014000
C    3.30100870  -1.22794950   0.05122998
C    4.58924818  -0.38822985  -0.03879999
C    4.37760830   0.71369976  -1.13624954
C    3.28746891   1.10867965  -0.07635997
N    4.37941837   0.77109975   0.94137961
H    0.44340983  -0.89377964   0.07803997
H    0.52078980   0.95886964  -0.02275999
H    3.19158864  -1.89281929  -0.80954969
H    3.23803878  -1.78076935   0.99250960
H    5.55348825  -0.89542967   0.01005000
H    4.02496862   0.37523985  -2.11510921
H    5.19997787   1.42515957  -1.27788949
H    2.88427877   2.12092924  -0.05908998
H    5.14232779   1.44700956   0.96165961

