%chk=mol_1795.chk
# wB97XD/Def2SVP opt freq pop=full gfinput

C 5 H 14 N 2

1 2
C    1.06665969  -0.09700996   0.17216994
N    2.52323890  -0.09333996   0.09656996
C    3.03080893   1.27264953  -0.09370996
C    4.58612823   1.35380948  -0.15632994
C    5.13027811   0.59790975  -1.37510943
N    4.97732782   2.78086901  -0.18327993
C    6.41673756   2.98466873  -0.07355997
H    0.71256971  -1.12223959   0.31850988
H    0.61644977   0.28581989  -0.74946970
H    0.71145970   0.49826980   1.01963961
H    2.80625892  -0.67260975  -0.69408977
H    2.68458891   1.88963926   0.74606973
H    2.60900903   1.70172930  -1.01250958
H    4.98614788   0.89356965   0.75664973
H    4.76696777   1.03827965  -2.31017923
H    4.83121824  -0.45432982  -1.35937953
H    6.22449732   0.60282981  -1.39895952
H    4.52962828   3.25049877   0.60430980
H    6.93993711   2.67199898  -0.98127961
H    6.83807707   2.46092892   0.79029965
H    6.61851740   4.05310869   0.05383998

