%chk=mol_5591.chk
# wB97XD/Def2SVP opt freq pop=full gfinput

C 4 H 6 N 2 O 1

1 2
N    1.21803963   0.07071997   0.75788969
C    2.29868913  -0.03905999   0.08089998
N    3.03047872  -1.16753948  -0.15755995
C    4.05088854  -0.86064970  -1.14810956
C    5.17302799   0.08847997  -0.84371966
C    3.90464854   0.61721975  -1.44136941
O    2.83495879   1.05303955  -0.55384976
H    0.94694966   1.05956960   0.71234977
H    2.53745914  -2.04511929  -0.06018998
H    4.12526846  -1.54487944  -1.98279929
H    5.38568783   0.31986988   0.19337992
H    6.05213737   0.05104998  -1.47557950
H    3.89445853   0.94157964  -2.47333908

