%chk=mol_3747.chk
# wB97XD/Def2SVP opt freq pop=full gfinput

C 5 H 8 O 2

1 2
O    2.19776917  -1.31041944  -0.83700967
C    3.38710856  -0.73711973  -0.31725988
C    3.04126906   0.61366975   0.21089992
C    3.73612881   1.73156941  -0.05711998
C    3.39165878   3.08508873   0.48681983
C    4.48615837   3.64388871   1.37744951
O    5.59195805   3.14148879   1.55042934
H    2.43272901  -2.20134926  -1.14544952
H    4.13435841  -0.69247973  -1.11601949
H    3.75885868  -1.37385941   0.49119982
H    2.16842914   0.65638977   0.85748971
H    4.61626816   1.67997944  -0.69616973
H    2.47096896   3.05485868   1.07957959
H    3.23976898   3.78839850  -0.33829987
H    4.23205853   4.60003805   1.86798930

