%chk=mol_3424.chk
# wB97XD/Def2SVP opt freq pop=full gfinput

C 5 H 8 O 2

1 2
C    2.26016927  -0.54506975  -0.66634977
O    3.52557874   0.04829998  -0.40247986
C    3.55941868   1.40569949  -0.16390994
C    2.50458908   2.24054909  -0.15791994
C    4.91523838   2.00931931   0.11686996
C    6.09384775   1.06969965   0.11019996
O    5.06288815   3.21184874   0.33556989
H    2.41809916  -1.61535943  -0.82864970
H    1.81398940  -0.12917995  -1.57560945
H    1.58703935  -0.43043986   0.18954994
H    1.49005949   1.91705930  -0.34647986
H    2.63350892   3.30194879   0.04160998
H    5.94448805   0.27304989   0.84385973
H    6.99953747   1.62042940   0.38270986
H    6.23001766   0.65000975  -0.89017963

