%chk=mol_2111.chk
# wB97XD/Def2SVP opt freq pop=full gfinput

C 5 H 10 N 2

1 2
N    1.84455931   0.56952977   2.74851894
C    2.49834895   0.75476974   1.65654945
N    3.57723880   0.01009000   1.31306958
C    4.57517815   0.63690978   0.51278979
C    5.56490803   1.49914944   1.33113956
C    6.68731737   0.91230965   0.44960985
C    5.76628780  -0.30223989   0.20867993
H    1.06602955   1.23598957   2.79610896
H    2.21235919   1.53261948   0.92698967
H    3.90129852  -0.57200980   2.08002925
H    4.17341852   1.12865961  -0.38161987
H    5.65517807   1.22839952   2.39001918
H    5.42606783   2.58083916   1.25310946
H    6.89103746   1.49820948  -0.45389983
H    7.63039684   0.70033973   0.95921963
H    5.79525757  -0.71736968  -0.80246967
H    5.91958809  -1.11455953   0.92937964

