%chk=mol_0997.chk
# wB97XD/Def2SVP opt pop=full gfinput

C 4 H 7 N 1 O 1

1 2
C    1.872870  -0.052251  -0.059885
C    4.762110   0.000000   0.000000
C    5.736207  -1.418372   2.319695
O    5.647919  -1.350625  -2.183730
C    5.672996   2.572238   0.000000
N    6.399047   4.622572   0.000000
H    1.148235   0.884637  -1.761055
H    1.050140   0.892763   1.588731
H    1.168588  -1.999538  -0.119941
H    5.109725  -0.536663   4.083736
H    7.809180  -1.478843   2.334719
H    5.095363  -3.388997   2.306997
H    5.263587  -0.330286  -3.666692

