%chk=mol_4493.chk
# wB97XD/Def2SVP opt freq pop=full gfinput

C 6 H 11 N 1

1 2
C   -1.53945935   0.77726972  -0.03177999
C   -1.54089952  -0.77610970   0.05100998
C   -0.20120993  -1.38385940   0.55326980
C    0.86734968  -0.74225974  -0.24470991
N    2.07118917   0.00239000  -0.03381999
C    0.86835968   0.72458971   0.22754993
C   -0.20505992   1.37953949  -0.55283982
H   -2.37272906   1.11884952  -0.65574980
H   -1.72146940   1.16486955   0.97937965
H   -1.73859930  -1.16315961  -0.95728970
H   -2.36630917  -1.11496961   0.68686974
H   -0.08196997  -1.21482956   1.63028944
H   -0.20529991  -2.46697927   0.39059988
H    0.73707974  -0.98802960  -1.29661942
H    2.54162908  -0.29410988   0.82252967
H    0.76334971   0.98053968   1.27962947
H   -0.19875993   2.46191907  -0.38658985
H   -0.10359996   1.21176958  -1.63162947

