%chk=mol_6711.chk
# wB97XD/Def2SVP opt freq pop=full gfinput

C 5 H 12 N 2

1 2
C    1.01119959  -0.01735999   0.00943000
C    2.53018904  -0.01769999   0.05012998
C    3.10234880   1.13973951   0.85430968
C    4.50775814   0.66413975   1.19570959
N    5.46000814   1.01788962   0.13292995
C    4.33280849  -0.85932970   1.33604944
N    3.03733897  -1.21029961   0.73931974
H    0.63643974  -0.86671966  -0.57164979
H    0.63854975   0.90113968  -0.45564982
H    0.58027977  -0.08246997   1.01487958
H    2.92185903   0.00821000  -0.97485960
H    2.53345919   1.29362941   1.78089929
H    3.08749890   2.08346915   0.29837990
H    4.85264826   1.11484957   2.13208914
H    5.19254780   0.55018979  -0.73290974
H    6.38023806   0.64890975   0.37180987
H    5.15019798  -1.41913950   0.86832964
H    4.31315851  -1.13711965   2.39572906
H    3.13734889  -1.98395920   0.08386996

