%chk=mol_0356.chk
# wB97XD/Def2SVP opt freq pop=full gfinput

C 5 H 9 N 1

1 2
C    0.99999964   0.00000000   0.00000000
C    2.44399905   0.00000000   0.00000000
C    3.63415861   0.00000000   0.00000000
C    5.07815790   0.00000000   0.00000000
C    5.62528801  -0.73544973  -1.22132945
N    5.56712818   1.37630939   0.01995999
H    0.60599977   1.02086961   0.01165000
H    0.60592973  -0.52054983   0.87822968
H    0.60601974  -0.50030982  -0.88995969
H    5.44419765  -0.50315982   0.90199965
H    5.29244804  -0.27277991  -2.15805912
H    5.28541803  -1.77782929  -1.23190951
H    6.72082758  -0.74378973  -1.21846962
H    5.23351812   1.85590935  -0.81470972
H    6.58206749   1.37455952  -0.03736999

