%chk=mol_5210.chk
# wB97XD/Def2SVP opt freq pop=full gfinput

C 4 H 9 N 1 O 2

1 2
C    0.96963966  -0.27037987   0.00488000
N    2.40242910  -0.12399995  -0.03446999
C    2.98224902   1.12583959  -0.07604997
O    2.33999896   2.16892934  -0.14142995
C    4.49372816   1.08434951  -0.00611000
C    5.09613800   2.47233915  -0.15736994
O    4.78998804   3.27794886   0.97551966
H    0.72207969  -1.32887948  -0.10342996
H    0.51669979   0.30574989  -0.80684972
H    0.60099977   0.10290996   0.96439964
H    2.97678900  -0.92356962   0.19976991
H    4.86051846   0.43481985  -0.80859971
H    4.77427816   0.65376973   0.96199960
H    4.73939848   2.98208904  -1.05839956
H    6.18614769   2.39759922  -0.21970992
H    3.82588840   3.44510865   0.93275964

