%chk=mol_5334.chk
# wB97XD/Def2SVP opt freq pop=full gfinput

C 5 H 7 N 1 O 1

1 2
C    1.17479956   0.11134996  -0.76505977
O    2.27058911   0.16623993   0.14619994
C    3.01285887   1.33880949   0.06995997
C    2.25398922   2.63937902   0.08686996
C    4.35043812   1.22881961   0.08071996
C    5.24779797   2.32822895   0.04285998
N    5.98232746   3.22414875   0.00691000
H    0.79406971  -0.91420966  -0.77133971
H    1.49333942   0.36397988  -1.78211927
H    0.36383986   0.76994973  -0.43925983
H    1.47388947   2.61023903   0.85503966
H    1.78276932   2.82277894  -0.88380969
H    2.89080882   3.49951863   0.31375989
H    4.80037832   0.24226992   0.11206996

