%chk=mol_3906.chk
# wB97XD/Def2SVP opt freq pop=full gfinput

C 5 H 9 N 1 O 1

1 2
C    0.89513963   0.01282999   0.19837992
C    2.39795899   0.07312997  -0.01399000
C    2.80672908  -0.03974998  -1.47671950
C    3.15418863   1.14304948   0.82060969
C    3.99546838  -0.05347998   1.30381942
O    5.06658840  -0.24411991   1.82380939
N    3.08497882  -0.93855965   0.80978966
H    0.63261980   0.02931999   1.26212955
H    0.47083983  -0.90013969  -0.23424992
H    0.40313986   0.86832964  -0.27681988
H    3.89607835  -0.04100998  -1.59867942
H    2.41355920   0.80529970  -2.05228925
H    2.42086911  -0.96132964  -1.92595923
H    2.58835912   1.62918937   1.62091935
H    3.71667838   1.88640928   0.25139990
H    3.41526890  -1.85803938   0.54967982

