%chk=mol_5411.chk
# wB97XD/Def2SVP opt pop=full gfinput

C 4 H 10 N 2 O 1

1 2
C    6.617557   5.868072  -7.832367
O    5.010439   5.397568  -5.708749
C    6.129799   5.566320  -3.411617
N    8.480411   6.127305  -3.085186
N    9.162413   6.196998  -0.602199
C    8.835301   8.664470   0.639691
C   11.757403   5.321167  -0.138328
H    5.478184   5.677701  -9.545895
H    8.144965   4.475873  -7.906935
H    7.371217   7.792172  -7.761238
H    4.751112   5.160861  -1.903446
H    6.872991   9.302914   0.466517
H   10.057217  10.108050  -0.204166
H    9.246279   8.536063   2.664930
H   12.011780   3.419592  -0.916706
H   12.149938   5.198145   1.890936
H   13.153627   6.569255  -1.018279

