%chk=mol_7048.chk
# wB97XD/Def2SVP opt freq pop=full gfinput

C 6 H 5 N 1

1 2
C    0.86039972   0.00218000  -0.02844999
C    2.05967927  -0.00256000  -0.03284999
C    3.59291863  -0.00842000  -0.03158999
C    4.79197788  -0.01397000  -0.01940999
C    6.22321749  -0.02278999   0.01439999
C    6.97432756  -0.77658969  -1.05270958
N    6.94538736   0.67949975  -1.04465961
H   -0.20479992   0.00784000  -0.02287999
H    6.67495775   0.02443999   1.00029957
H    6.41829729  -1.25543952  -1.84954929
H    7.91237688  -1.24847960  -0.79004967
H    7.81710672   1.06650960  -0.68211973

