%chk=mol_3177.chk
# wB97XD/Def2SVP opt freq pop=full gfinput

C 6 H 8 O 1

1 2
C    2.99938869  -1.13056958   0.60878980
C    2.32864904   0.17485994   0.25780991
O    1.10898960   0.22798993   0.10372996
C    3.19866896   1.39924955   0.09842996
C    2.57611895   2.59013891   0.11541995
C    4.62574816   1.26658952  -0.13585995
C    5.57289791   2.05841923   0.38563985
H    3.70023870  -0.98992962   1.43711948
H    3.51369858  -1.53560948  -0.26676992
H    2.24041915  -1.84993923   0.93367964
H    1.50199950   2.66781902   0.26452991
H    3.11125875   3.52211881  -0.03067999
H    4.93180799   0.44857982  -0.78591973
H    5.33784771   2.88621902   1.04788959
H    6.62093782   1.88892925   0.15717994

