%chk=mol_4449.chk
# wB97XD/Def2SVP opt freq pop=full gfinput

C 6 H 11 N 1

1 2
C    0.61946976   0.31385988  -0.75995970
C    0.06270998   1.28654957   0.24444991
N    0.16718993  -0.13552995   0.55176979
C    1.27591944  -0.43898985   1.46049941
C    0.71741974  -0.57919979   2.89774895
C    1.59087944  -1.84677935   3.02294898
C    1.49215937  -1.97176921   1.48624945
H   -0.00831000   0.02808999  -1.59543931
H    1.68265939   0.32820988  -0.96573961
H   -0.94230968   1.65965939   0.08972996
H    0.74020970   1.97419930   0.73489970
H    2.19651914   0.15290993   1.38185942
H   -0.35682988  -0.78718972   2.97990870
H    0.97146964   0.23341991   3.58454871
H    2.60615897  -1.65057945   3.38628888
H    1.15765965  -2.66946888   3.59690881
H    2.39690900  -2.32991910   0.98723960
H    0.64269978  -2.58464909   1.15871954

