%chk=mol_0737.chk
# wB97XD/Def2SVP opt freq pop=full gfinput

C 6 H 2

1 2
C    0.82133973   0.00000000   0.00000000
C    2.02137923   0.00000000   0.00000000
C    3.55331874   0.00000000   0.00000000
C    4.75365782   0.00000000   0.00000000
C    6.28569794   0.00000000   0.00000000
C    7.48577738   0.00000000   0.00000000
H   -0.24405991   0.00000000   0.00000000
H    8.55080700   0.00000000   0.00000000

