%chk=mol_0501.chk
# wB97XD/Def2SVP opt freq pop=full gfinput

C 4 H 10 N 2

1 2
C    0.93230963   0.13190995  -0.55008978
N    2.20215917   0.25820991   0.12175995
C    2.99386883   1.37743950   0.07754997
C    2.36272907   2.74353909  -0.08921997
N    4.27044821   1.17627954   0.15538995
C    5.16947842   2.31769919   0.08173997
H    0.56127977  -0.89235967  -0.44549984
H    1.03342962   0.35089988  -1.61744940
H    0.18409993   0.79995966  -0.11450996
H    2.77648902  -0.58025980   0.09400997
H    1.30906951   2.73035908   0.19853993
H    2.44152904   3.04812884  -1.13652956
H    2.86366892   3.48227859   0.54097980
H    6.19794750   1.95327926  -0.00353000
H    5.11233807   2.92537904   0.99004966
H    4.97531796   2.93990898  -0.79780972

