%chk=mol_2295.chk
# wB97XD/Def2SVP opt freq pop=full gfinput

C 6 H 10 O 1

1 2
C    0.97972959   0.02782999  -0.02475999
C    2.49442911   0.03727999   0.01963999
C    3.14915872   1.05774963   0.98229963
C    4.21790838  -0.01162000   1.28057957
C    3.17418885  -1.08199966   0.86790967
C    3.68547845  -2.33448911   0.11951996
O    4.40887833  -2.35343909  -0.87608963
H    0.61735976  -0.82728970  -0.60442978
H    0.60294980   0.93970960  -0.49919981
H    0.54541981  -0.03552999   0.97854966
H    2.90863895   0.10772996  -0.99631965
H    2.53769898   1.31857944   1.85441923
H    3.51731873   1.97746921   0.52014977
H    5.09306812   0.04490998   0.62288976
H    4.55799818  -0.05715998   2.31853914
H    2.55626917  -1.38244939   1.72808933
H    3.34525871  -3.29079890   0.55263978

