%chk=mol_0785.chk
# wB97XD/Def2SVP opt pop=full gfinput

C 5 H 10 O 1

1 2
C    2.388368  -0.544827   0.352566
C    5.198315  -0.882200  -0.111173
O    6.384364   1.527522   0.137326
C    8.942203   1.632988  -0.201879
C   10.565062  -0.240279  -0.726921
C   13.341259   0.166598  -1.049592
H    1.389251  -2.343714   0.162781
H    1.585348   0.811373  -0.988119
H    2.049616   0.210270   2.249114
H    5.492206  -1.626128  -2.021950
H    5.966565  -2.205405   1.285052
H    9.551640   3.578877   0.027099
H    9.921496  -2.174810  -0.944183
H   13.869532   2.157633  -0.860468
H   13.933839  -0.480860  -2.922027
H   14.381780  -0.915837   0.372333

