%chk=mol_5871.chk
# wB97XD/Def2SVP opt freq pop=full gfinput

C 6 H 11 N 1

1 2
C    0.93599969  -0.02650999   0.06266998
C    2.45671916  -0.00482000  -0.03646998
C    3.02926874  -1.21298957  -0.72387969
C    4.07230854  -0.89051968  -1.49801946
C    4.35215807   0.57950979  -1.46265948
C    3.06003881   1.17076957  -0.85560971
N    2.17146921   1.67621946  -1.91692936
H    0.56160980   0.90984964   0.48838982
H    0.60857981  -0.84413970   0.71416974
H    0.45907983  -0.18011993  -0.91113967
H    2.86155891   0.02877999   0.98412967
H    2.67436886  -2.22193933  -0.56030977
H    4.67029858  -1.60006940  -2.05143929
H    5.21780825   0.78103971  -0.82222968
H    4.56638861   0.97152960  -2.46220899
H    3.29596877   2.01302934  -0.19555993
H    1.94491923   0.90317965  -2.54429913
H    2.67537904   2.35602903  -2.48463917

