%chk=mol_2734.chk
# wB97XD/Def2SVP opt freq pop=full gfinput

C 6 H 8 O 1

1 2
C    1.13442957   0.15509994   0.03443999
C    2.62777901  -0.13390994  -0.04711998
C    2.96384883  -0.83858973  -1.29662955
C    3.23620868  -1.42112947  -2.31066895
C    3.42454886   1.13644958  -0.10932996
C    3.78836870   1.87733924   1.15402961
O    4.74040794   1.06143963   0.45880982
H    0.89515966   0.70477974   0.95119965
H    0.55415982  -0.77424973   0.03363999
H    0.79261971   0.76192969  -0.81246972
H    2.92630887  -0.74170971   0.81521964
H    3.48534870  -1.93817925  -3.20910883
H    3.28439879   1.71737933  -1.01309955
H    3.41950870   1.51368940   2.10465932
H    3.91982865   2.95075893   1.09987950

