%chk=mol_4435.chk
# wB97XD/Def2SVP opt freq pop=full gfinput

C 5 H 11 N 1 O 1

1 2
C    1.31551957  -1.27797949  -1.49441946
C    2.48624921  -0.98301965  -0.57059979
C    2.94209909   0.46846983  -0.68996972
C    4.11663866   0.76615971   0.23415992
O    4.48320818   2.13721919   0.07046997
N    5.55869770   2.41372919   0.92797965
C    5.89066792   3.65155864   0.78331971
H    1.00559962  -2.32262897  -1.39151943
H    1.58822930  -1.10601962  -2.54051900
H    0.45644984  -0.64353979  -1.25406957
H    3.31641889  -1.65542936  -0.81629968
H    2.19094920  -1.19653952   0.46329981
H    2.11328912   1.14775956  -0.45414984
H    3.22842884   0.69328976  -1.72506940
H    4.97303820   0.13049994  -0.01924999
H    3.83518863   0.58927977   1.27875960
H    6.72045755   4.06946850   1.37278938
H    5.37748814   4.33304834   0.08486997

