%chk=mol_3406.chk
# wB97XD/Def2SVP opt freq pop=full gfinput

C 6 H 6 O 1

1 2
C    1.00224960  -0.06408998   0.01476999
O    2.42140913  -0.00696000   0.01428000
C    2.89400887   1.33854949   0.00000000
C    4.33800840   1.33854949   0.00000000
C    5.52816820   1.33854949   0.00000000
C    7.06033707   1.33971953  -0.00000000
C    8.25964737   1.34008944   0.00000000
H    0.69970971  -1.11463952   0.02595999
H    0.59883982   0.40553984  -0.88755971
H    0.59868979   0.42470986   0.90678966
H    2.51449895   1.86481929   0.88316971
H    2.51449895   1.84596932  -0.89413965
H    9.32496643   1.33794951   0.00003000

