%chk=mol_7143.chk
# wB97XD/Def2SVP opt freq pop=full gfinput

C 6 H 5 N 1

1 2
C    0.99999964   0.00000000   0.00000000
C    2.44399905   0.00000000   0.00000000
C    3.63415861   0.00000000   0.00000000
C    5.04015779   0.00000000   0.00000000
C    5.69717741   1.13798952   0.00000000
C    7.10317755   1.13798952   0.00000000
N    8.25418663   1.13798952   0.00000000
H    0.60599977   1.02087963   0.01167000
H    0.60593975  -0.52049983   0.87823963
H    0.60592973  -0.50029981  -0.88992965
H    5.54932833  -0.96027964  -0.00000000
H    5.19327831   2.09774923   0.00000000

