%chk=mol_2138.chk
# wB97XD/Def2SVP opt pop=full gfinput

C 5 H 10 N 2

1 2
N    1.460380   2.314612  -0.113421
N    3.752032   2.111599  -1.222350
C    5.604984   2.447819   0.340170
C    8.302134   2.305636  -0.556581
C    9.618007   4.804855  -0.322501
C   11.404535   5.322281   1.835226
C   12.423098   4.963233  -0.792570
H    0.123172   1.570211  -1.297826
H    0.958148   4.176049   0.050928
H    5.305406   2.849896   2.370926
H    8.326946   1.697787  -2.533990
H    9.256389   0.852814   0.569998
H    8.481393   6.352295  -1.046096
H   11.771558   3.842229   3.205221
H   11.440421   7.213689   2.623526
H   13.132198   6.610300  -1.782976
H   13.448614   3.238707  -1.202792

