%chk=mol_2940.chk
# wB97XD/Def2SVP opt freq pop=full gfinput

C 6 H 6 O 1

1 2
C    0.99999964   0.00000000   0.00000000
C    2.44399905   0.00000000   0.00000000
C    3.63415861   0.00000000   0.00000000
C    5.07815790   0.00000000   0.00000000
O    5.55205774  -0.66931975  -1.16268957
C    5.56017780   1.36116946   0.00000000
C    5.95745802   2.48306894   0.00000000
H    0.60602981   1.02088964   0.01162000
H    0.60592973  -0.52048981   0.87825966
H    0.60597974  -0.50031978  -0.88993967
H    5.46276808  -0.54393977   0.86825967
H    5.18126822  -0.18219994  -1.91746926
H    6.31469774   3.48807883   0.00037000

