%chk=mol_6685.chk
# wB97XD/Def2SVP opt freq pop=full gfinput

C 4 H 3 N 1 O 1 S 1

1 2
O    2.65125895  -1.11752963   0.08469997
C    2.12229919  -0.01027000   0.01582999
C    2.86775899   1.24166954  -0.00671000
N    2.20071912   2.39853907  -0.08337997
S    3.28267884   3.65243864  -0.09214997
C    4.68508816   2.68081903   0.00692000
C    4.29787827   1.35990942   0.04713998
H    1.02540958   0.09254996  -0.03370998
H    5.67871809   3.10549879   0.02976999
H    4.98176813   0.52314979   0.11088996

