%chk=mol_3244.chk
# wB97XD/Def2SVP opt pop=full gfinput

C 5 H 10 O 2

1 2
C    1.691116  -0.008617  -0.183209
C    4.559626   0.276750  -0.071696
O    5.618194  -1.025365  -2.189531
C    5.613620   2.938260  -0.090782
C    4.210574   5.049027  -0.284366
C    8.448134   3.117916   0.211706
O    9.672110   2.102169  -1.948648
H    0.771707   0.894351   1.434113
H    1.176884  -2.014429  -0.187555
H    0.917916   0.790926  -1.930147
H    5.230592  -0.685574   1.636068
H    4.899569  -0.237312  -3.692941
H    2.168990   5.014747  -0.474378
H    5.081719   6.909708  -0.271516
H    9.072065   2.074674   1.886136
H    9.082723   5.075219   0.429138
H    8.884850   0.456860  -2.255615

