%chk=mol_3847.chk
# wB97XD/Def2SVP opt pop=full gfinput

C 4 H 8 N 2 O 1

1 2
C    3.166349  -0.228959   0.023527
C    1.353101  -2.290254   0.923131
O   -0.673404  -2.449501  -0.846030
N   -2.832775  -1.141017  -0.023603
C   -2.530551   1.259540   0.437831
C   -0.184381   2.906663   0.485168
N    1.930147   2.011122  -1.040597
H    4.360335  -1.014235  -1.476537
H    4.431332   0.303755   1.574898
H    2.321907  -4.118564   0.959716
H    0.654053  -1.924856   2.841430
H   -4.265225   2.245902   1.047437
H    0.369914   3.209057   2.459327
H   -0.771915   4.754400  -0.248782
H    3.233870   3.410805  -1.254929

