%chk=mol_3306.chk
# wB97XD/Def2SVP opt freq pop=full gfinput

C 5 H 10 O 2

1 2
C    1.09820962  -0.01474999  -1.32915950
O    1.42649949   1.22566962  -0.71959972
C    2.83814883   1.36463952  -0.46098980
C    3.56551862   2.37870908  -1.29309952
C    3.24177861   2.68498898   0.14046994
O    4.36759806   2.66691899   1.04290962
C    3.99869847   2.28584933   2.36309910
H    0.02424999  -0.02841999  -1.53159940
H    1.33939946  -0.84109968  -0.65415978
H    1.63841939  -0.13010995  -2.27416897
H    3.39290881   0.49125981  -0.13050994
H    3.00985885   2.90568876  -2.05861926
H    4.59966850   2.18058920  -1.54633951
H    2.46125913   3.42172885   0.31676990
H    4.82551813   2.52755904   3.03748870
H    3.81749845   1.20660949   2.40059924
H    3.10564876   2.82785892   2.69381881

