%chk=mol_0146.chk
# wB97XD/Def2SVP opt freq pop=full gfinput

C 4 H 9 N 1

1 2
C    1.01920962   0.00245000  -0.06722997
C    2.50704908   0.05027998  -0.02119999
C    3.31900883  -0.70722973  -1.04598963
N    3.22670865   0.74972975  -1.07924962
C    4.44605827   1.41061950  -0.62295979
H    0.59660977   0.78350967   0.57304978
H    0.66220975  -0.96542960   0.29962987
H    0.62832975   0.14677994  -1.08030963
H    2.88315892   0.09454997   0.99446958
H    2.79767895  -1.22646964  -1.84225929
H    4.25072861  -1.16041958  -0.73643970
H    4.23534822   2.46722889  -0.42985985
H    5.20964766   1.36341953  -1.40601945
H    4.87616825   0.98397964   0.29227990

