%chk=mol_2139.chk
# wB97XD/Def2SVP opt freq pop=full gfinput

C 5 H 8 N 2

1 2
N    1.23513961  -0.13415994   0.04193998
N    2.57494903   0.06247998   0.06081998
C    2.99384880   1.29825950   0.04517998
C    2.11446929   2.51495886   0.09736997
C    2.45072913   3.73092866  -0.35598987
C    4.46314859   1.57679939   0.05294998
C    5.33422804   0.70873970  -0.47657982
H    1.04439962  -1.13042951   0.17290993
H    0.85901970   0.08746997  -0.88318968
H    1.12435961   2.35150909   0.51141977
H    3.40743876   3.94431853  -0.81863970
H    1.74042940   4.54934835  -0.29161990
H    4.80458784   2.49572897   0.51419979
H    5.00484848  -0.22088993  -0.93193966
H    6.39965773   0.90920967  -0.45765984

