%chk=mol_0810.chk
# wB97XD/Def2SVP opt freq pop=full gfinput

C 5 H 10 O 1

1 2
C    1.25302947  -0.22016992  -0.28408989
O    2.66472888  -0.06417997  -0.25488991
C    3.03745866   1.27209949   0.07103997
C    4.52993822   1.34785950   0.09606996
C    5.30133820   1.79886937  -1.11788952
C    5.22590828   2.68496895   0.09522997
H    1.02641964  -1.26961946  -0.49008983
H    0.81820965   0.39379984  -1.07845962
H    0.81464970   0.04767998   0.68215972
H    2.64558911   1.52972937   1.06155968
H    2.61528921   1.96376932  -0.66771972
H    4.95975828   0.56220978   0.70764971
H    4.74991798   2.09619927  -2.00273919
H    6.24120808   1.30159950  -1.33026946
H    6.11755753   2.78948903   0.70306969
H    4.62620783   3.58513880   0.02942999

