%chk=mol_4572.chk
# wB97XD/Def2SVP opt freq pop=full gfinput

C 5 H 6 N 2

1 2
C    0.89700967  -1.25573957   0.33484986
C   -0.48148981  -1.53437948  -0.17119993
C   -1.44979942  -0.62129974  -0.27301991
C   -1.25601947   0.74453974   0.25551990
N   -0.21471992   1.50366950   0.30810988
N    0.97077960   1.18041956  -0.33753988
C    1.47349954  -0.01170000  -0.28089988
H    1.54315948  -2.08068919   0.00877000
H    0.94575965  -1.21577954   1.42564940
H   -0.69673973  -2.55776906  -0.47113982
H   -2.44616914  -0.87438965  -0.61752981
H   -2.17530918   1.16750968   0.69707972
H    2.47253895  -0.13294995  -0.73561972

