%chk=mol_3999.chk
# wB97XD/Def2SVP opt pop=full gfinput

C 4 H 8 N 2 O 1

1 2
C    1.823246  -0.139821   0.237746
C    4.675031  -0.004422  -0.108414
C    5.706822  -2.227269  -1.693648
N    6.793906  -1.159101  -4.066370
C    6.547145   1.261657  -3.758174
N    5.303479   2.172788  -1.679362
O    6.717296   4.008109  -0.412659
H    1.128507   1.531585   1.240983
H    1.296825  -1.815554   1.329668
H    0.840607  -0.222685  -1.583515
H    5.614565   0.068654   1.737206
H    4.244363  -3.619052  -2.158615
H    7.212650  -3.201858  -0.661801
H    7.252316   2.691990  -5.098349
H    5.500520   5.377537  -0.180922

