%chk=mol_4732.chk
# wB97XD/Def2SVP opt freq pop=full gfinput

C 5 H 7 N 1 O 1

1 2
C    0.89378971   0.77517974  -0.03374999
C    2.19504905   0.48125982  -0.08425997
N    3.16440892   1.44103944   0.04866998
C    4.51547861   1.16032958  -0.00033000
O    5.00107813   0.04581998  -0.16458994
C    5.35763836   2.37560892   0.17022994
C    6.69367790   2.28609896   0.14903995
H    0.15414993  -0.01218000  -0.14308995
H    0.52796978   1.78476930   0.11450996
H    2.53781915  -0.54182976  -0.23438992
H    2.86548901   2.39703894   0.18889993
H    4.87245798   3.33233881   0.31152987
H    7.19603729   1.33217955   0.00801000
H    7.31475735   3.16642880   0.27246988

