%chk=mol_2373.chk
# wB97XD/Def2SVP opt freq pop=full gfinput

C 5 H 8 O 2

1 2
C    0.96902966  -0.02645999   0.13978994
C    2.45779920   0.13107994  -0.08427997
C    3.19634867   1.10738957   0.83750969
C    4.12714863  -0.07986997   1.12116957
O    3.19126868  -0.99284965   0.47245982
C    5.54492807  -0.06948997   0.47765982
O    5.89544773   0.52416980  -0.54322976
H    0.57649976  -0.86079967  -0.45013982
H    0.43622985   0.88004971  -0.16441993
H    0.73779970  -0.21890992   1.19266963
H    2.70601892   0.25540990  -1.14583957
H    2.63393903   1.45344949   1.70973933
H    3.64852858   1.96461928   0.33217987
H    4.18784857  -0.31419989   2.19146919
H    6.29194784  -0.65332973   1.04025960

