%chk=mol_4571.chk
# wB97XD/Def2SVP opt pop=full gfinput

C 5 H 9 N 1 O 1

1 2
C    1.704457   0.418877   0.206037
C    4.329022  -0.443216  -0.580486
C    6.333946   1.535459  -0.037171
O    5.848079   3.579803   0.960793
C    9.016053   1.006336  -0.716924
C    9.836403  -1.137615  -1.772695
N   12.280499  -1.683387  -2.437652
H    0.310199  -1.051538  -0.207624
H    1.151939   2.137129  -0.806082
H    1.631949   0.825961   2.233788
H    4.321728  -0.842534  -2.611526
H    4.804855  -2.171069   0.453326
H   10.307379   2.541984  -0.291963
H    8.560554  -2.682787  -2.228006
H   13.614683  -0.557413  -1.627508
H   12.735147  -3.551665  -2.361723

