%chk=mol_6513.chk
# wB97XD/Def2SVP opt pop=full gfinput

C 4 H 2 N 2 S 1

1 2
C    1.647822   0.164198  -0.004951
C    3.916590   0.115802  -0.001020
C    6.599793   0.060188   0.003647
C    8.222237   2.103227   0.003194
N   10.775029   1.511025   0.008504
N   11.141447  -0.962645   0.013020
S    8.434831  -2.605649   0.010979
H   -0.365360   0.202749  -0.008428
H    7.665844   4.070016  -0.000850

