%chk=mol_0944.chk
# wB97XD/Def2SVP opt pop=full gfinput

C 4 H 7 N 1 O 1

1 2
C    1.807202  -0.032182   0.221873
C    4.642925   0.108489  -0.112080
C    6.063602   2.041944   1.561027
N    7.816228  -0.007559   2.202155
C    6.221319  -1.845072   1.363796
O    6.154876  -4.072227   1.844392
H    1.037157  -1.661353  -0.792003
H    0.904139   1.668250  -0.534074
H    1.274960  -0.208626   2.214003
H    5.187714   0.184437  -2.112525
H    5.051352   2.755410   3.216673
H    6.969461   3.595185   0.545583
H    8.732670  -0.334368   3.847917

