%chk=mol_5642.chk
# wB97XD/Def2SVP opt pop=full gfinput

C 4 H 6 N 2 O 1

1 2
N    3.819968  -0.759519  -2.441337
C    4.813265  -0.119204   0.042179
C    5.661147   2.541247   0.010923
C    4.249862   4.693399  -0.363867
O    5.748622   6.764690  -0.215334
N    8.210010   6.018249   0.274653
C    8.121079   3.499981   0.402172
H    3.322460  -2.619217  -2.464468
H    5.209975  -0.558452  -3.758646
H    6.377977  -1.387683   0.517879
H    3.337200  -0.377359   1.470094
H    2.276402   5.049556  -0.747254
H    9.851879   2.478395   0.778038

