%chk=mol_5883.chk
# wB97XD/Def2SVP opt pop=full gfinput

C 4 H 8 N 2 O 1

1 2
N    2.906966   5.191947   2.158615
C    4.509245   3.982806   0.563630
O    3.895028   2.062447  -0.558206
N    6.792885   5.165132   0.405044
C    8.792575   3.990025  -1.018109
C   10.951587   5.808035  -1.121496
C   13.211737   5.409851  -0.053404
H    2.994044   7.097944   2.163434
H    1.136368   4.467010   2.136298
H    7.304812   6.077926   1.999840
H    8.118434   3.551627  -2.924975
H    9.303065   2.213134  -0.085926
H   10.636494   7.546073  -2.173469
H   13.624547   3.693375   0.993429
H   14.712029   6.801332  -0.218396

