%chk=mol_6147.chk
# wB97XD/Def2SVP opt pop=full gfinput

C 6 H 13 N 1

1 2
C    1.789457  -0.039212   0.431235
C    4.618283  -0.014116  -0.146832
C    5.100956   0.034091  -2.993742
C    6.101756   2.025012   1.364326
C    7.803095  -0.041725   2.493569
N   10.256243   0.001682   1.222426
C    6.125906  -2.086484   1.291269
H    1.428123  -0.074096   2.469400
H    0.883126  -1.706064  -0.395709
H    0.864436   1.643003  -0.341870
H    7.117918   0.044446  -3.442155
H    4.263109   1.720992  -3.851753
H    4.269345  -1.626790  -3.906801
H    4.970924   2.997786   2.803617
H    7.031595   3.485751   0.228317
H    7.913134  -0.073624   4.556356
H   10.186512   0.163707  -0.694626
H   11.339396  -1.549708   1.582929
H    7.074284  -3.494387   0.105503
H    5.007491  -3.122640   2.695505

