%chk=mol_4260.chk
# wB97XD/Def2SVP opt pop=full gfinput

C 6 H 11 N 1

1 2
C   -1.663620   0.036698  -2.185241
C   -1.152279   1.996099  -0.045675
C   -2.210847  -0.052081   1.780991
C   -1.134403  -1.999028  -0.134719
N    1.596403  -2.295356   0.391381
C    3.075718  -0.025001  -0.200443
C    1.663469   2.421306   0.414398
H   -3.626876   0.042198  -2.857379
H   -0.442309   0.083261  -3.851375
H   -2.252553   3.743264  -0.129163
H   -1.455202  -0.082808   3.705885
H   -4.281042  -0.063533   1.908586
H   -2.168442  -3.777411  -0.298237
H    1.957718  -2.832416   2.207011
H    3.550644  -0.064326  -2.218009
H    4.888192  -0.075816   0.799694
H    2.371588   3.952608  -0.785446
H    1.982228   2.974599   2.384985

