%chk=mol_6904.chk
# wB97XD/Def2SVP opt pop=full gfinput

C 6 H 13 N 1

1 2
C    5.604682  -1.957454  -1.280100
C    4.532943   0.298123   0.141729
C    6.354280   2.467075   0.178050
C    6.565003   4.369935  -1.950783
C    4.989066   4.244987  -4.283442
C    5.379313   5.122878   0.525287
N    6.730694   6.855624   2.193159
H    4.265244  -3.532219  -1.245424
H    7.376848  -2.596559  -0.426284
H    5.990659  -1.479580  -3.254524
H    4.138463  -0.263617   2.096746
H    2.716821   0.838283  -0.693700
H    8.091958   1.953901   1.138390
H    8.441048   5.072327  -2.382642
H    3.014775   3.768322  -3.892344
H    5.753290   2.832680  -5.584972
H    5.012045   6.076036  -5.243858
H    3.338163   5.383792   0.537438
H    8.635103   6.592499   2.087467
H    6.253463   6.533483   4.031523

