%chk=mol_3560.chk
# wB97XD/Def2SVP opt pop=full gfinput

C 5 H 6 O 2

1 2
O    1.838382  -0.046752  -0.347143
C    4.451647  -0.052704   0.130637
C    5.643478  -2.285265  -1.102844
C    7.509753  -1.688092  -2.703178
C    7.947338   1.092337  -2.929907
C    5.883625   2.061956  -1.211239
O    5.367521   4.311920  -0.947225
H    1.268819   1.671406  -0.000643
H    4.836867  -0.012718   2.160108
H    5.030054  -4.195664  -0.711576
H    8.585555  -3.064569  -3.767377
H    9.804599   1.633309  -2.212227
H    7.642204   1.748564  -4.862870

