%chk=mol_3663.chk
# wB97XD/Def2SVP opt freq pop=full gfinput

C 5 H 8 O 2

1 2
O    2.12649918  -0.33670989  -1.37152958
C    2.29729915   0.06483997  -0.02060999
C    3.14447880   1.32307959  -0.00280000
C    2.49192905   2.60019898  -0.60966980
C    3.00697899   3.34952879   0.63500977
O    3.15699887   4.51822853   0.91861963
C    3.26926875   2.02618933   1.37953949
H    1.61274934  -1.16325963  -1.36514950
H    2.79416895  -0.74351972   0.52460980
H    1.31005955   0.23512992   0.42062983
H    4.13477850   1.12938952  -0.44115981
H    1.40007949   2.59203911  -0.67637974
H    2.92404890   2.93823886  -1.55390942
H    4.25306845   1.95653927   1.84833932
H    2.48820901   1.78850937   2.10752916

