%chk=mol_6678.chk
# wB97XD/Def2SVP opt pop=full gfinput

C 7 H 8

1 2
C   -2.798193   1.564221   0.996453
C   -2.194256  -0.776243  -0.503914
C   -0.453213  -2.675285   0.562156
C    2.042473  -2.279671   0.854440
C    3.158639   0.124760   0.161175
C    1.717685   1.998877  -0.775525
C   -1.024061   1.751512  -1.220215
H   -4.670363   2.369339   0.788507
H   -2.036577   1.747354   2.890657
H   -3.643638  -1.523573  -1.744614
H   -1.255062  -4.482147   1.117565
H    3.263160  -3.726710   1.640415
H    5.173333   0.376433   0.447808
H    2.592458   3.791376  -1.260447
H   -1.713641   2.658334  -2.923463

