%chk=mol_6533.chk
# wB97XD/Def2SVP opt pop=full gfinput

C 4 H 2 N 2 S 1

1 2
C    1.703456   0.191297   0.003553
C    3.968803   0.115103  -0.001077
C    6.658923   0.035886  -0.006595
N    8.062479   2.089168  -0.016819
C   10.571525   1.340780  -0.019559
N   11.180867  -1.103165  -0.012321
S    8.437401  -2.679121  -0.000907
H   -0.309518   0.275768   0.007597
H   12.069587   2.735492  -0.027722

