%chk=mol_2677.chk
# wB97XD/Def2SVP opt freq pop=full gfinput

C 6 H 10 O 1

1 2
C    2.46997905  -0.42824984  -1.57971931
C    2.50708890   0.13875994  -0.16950995
C    3.46903849   1.31920958  -0.01618999
O    3.49523854   1.70155942   1.37707949
C    3.14175892   3.09158897   1.48733950
C    2.87843895   3.55157876   0.10561996
C    3.06103897   2.54819894  -0.74946970
H    1.81850922  -1.30710948  -1.61420941
H    3.46909857  -0.73485970  -1.90507936
H    2.08208919   0.30216986  -2.29600906
H    2.80387902  -0.65468973   0.52908981
H    1.49464941   0.43289983   0.13591996
H    4.48529816   1.02366960  -0.29837990
H    3.97535849   3.63206863   1.94484925
H    2.25586915   3.18016863   2.12248921
H    2.58772898   4.55737829  -0.15558995
H    2.94891906   2.61371922  -1.82096934

