%chk=mol_6617.chk
# wB97XD/Def2SVP opt freq pop=full gfinput

C 4 H 5 N 1 O 1 S 1

1 2
C    3.06383872  -1.09860957   0.52163982
O    2.31617928   0.08626997   0.28186989
C    3.06796885   1.20706952   0.14645994
C    2.45132899   2.41596913  -0.08889997
S    3.64969873   3.63126874  -0.21174991
N    4.94573832   2.62191916   0.03361998
C    4.48373842   1.38509953   0.20603992
H    2.35708904  -1.92961931   0.61270976
H    3.62284851  -1.03022957   1.46155941
H    3.73419857  -1.31975949  -0.31640986
H    1.39892948   2.63464904  -0.19032992
H    5.22411823   0.61550975   0.37761986

