%chk=mol_5833.chk
# wB97XD/Def2SVP opt freq pop=full gfinput

C 4 H 8 N 2 O 1

1 2
N    2.03979921  -1.06890953   0.87559968
C    2.58370900  -0.39862984  -0.18789993
N    2.54529905  -0.89231968  -1.38122952
C    3.26477861   0.96832961   0.06811998
O    2.53469896   1.66133940   1.07339966
C    4.67403841   0.70696974   0.52878982
C    5.18681812   0.97418964   1.73949933
H    2.34902906  -0.70487976   1.77651930
H    2.09142923  -2.07928920   0.82942969
H    2.03219938  -1.77722943  -1.35802948
H    3.27021861   1.56631947  -0.84926969
H    1.64275944   1.78204930   0.70322973
H    5.32319784   0.25543991  -0.22016992
H    4.58585835   1.43160951   2.52062917
H    6.22269773   0.74855971   1.96852922

