%chk=mol_1898.chk
# wB97XD/Def2SVP opt freq pop=full gfinput

C 7 H 12

1 2
C    0.94486970   0.14678994  -0.87311965
C    2.41213894   0.07784998  -0.60591978
C    3.21387863   1.15149963  -0.51650977
C    4.65389824   1.11590958  -0.24672990
C    5.57822800   0.50950980  -1.27403951
C    5.56079817   1.99876928  -1.06994963
C    6.72185755   2.68159890  -0.43180984
H    0.70840973  -0.39230984  -1.79571939
H    0.59036982   1.17703950  -0.97934961
H    0.39415985  -0.32021987  -0.05078998
H    2.83757877  -0.91490960  -0.48197982
H    2.77578902   2.14096928  -0.63504976
H    4.90856838   0.96576965   0.79846972
H    5.15632820   0.12194996  -2.19476914
H    6.42829752  -0.05748998  -0.91175967
H    5.12652779   2.60532904  -1.85706925
H    7.17491722   2.07417917   0.35905987
H    6.40353775   3.63171864   0.00906000
H    7.49171734   2.89425898  -1.18056953

