%chk=mol_7116.chk
# wB97XD/Def2SVP opt pop=full gfinput

C 6 H 15 N 1

1 2
C    6.001506  -2.381206   3.286649
C    5.187015  -1.618607   0.619792
C    2.312836  -1.848322   0.376906
C    6.018476   1.084684  -0.068862
C    8.890387   1.448645  -0.086474
C    9.590738   4.130960  -0.900190
N   12.328611   4.445260  -0.906804
H    8.059304  -2.508498   3.436675
H    5.239360  -4.239809   3.784687
H    5.332750  -1.018808   4.692927
H    6.047010  -2.943267  -0.724804
H    1.345391  -0.552594   1.668231
H    1.688017  -3.771893   0.812582
H    1.700546  -1.409811  -1.550180
H    5.163374   2.434761   1.254098
H    5.279385   1.550577  -1.950008
H    9.753160   0.073435  -1.375702
H    9.661716   1.091714   1.802100
H    8.746938   5.511575   0.391967
H    8.862362   4.516011  -2.798647
H   13.023879   4.120359   0.859051
H   12.759261   6.275440  -1.327400

