%chk=mol_3340.chk
# wB97XD/Def2SVP opt pop=full gfinput

C 5 H 8 O 2

1 2
C    4.410621  -0.565085  -3.103724
O    4.094073   1.005826  -0.955181
C    6.188683   2.635525  -0.569337
O    6.626193   2.982460   2.088544
C    5.705669   5.435495   2.790936
C    5.292707   6.801181   0.382670
C    5.558422   5.194517  -1.538332
H    2.708148  -1.714813  -3.326201
H    6.025127  -1.831050  -2.842545
H    4.664694   0.571170  -4.812924
H    7.933486   1.890747  -1.399267
H    7.128784   6.360970   3.968671
H    3.951058   5.225301   3.863810
H    4.783596   8.769784   0.235687
H    5.302420   5.641191  -3.509127

