%chk=mol_2936.chk
# wB97XD/Def2SVP opt freq pop=full gfinput

C 6 H 10 O 1

1 2
C    1.15098965  -0.09142997   0.67602974
C    2.51999903   0.00000000   0.00000000
C    2.51646924  -0.59551978  -1.41691947
C    1.55219948   0.06944998  -2.39612913
O    1.66104937  -0.56009978  -3.66852856
C    3.00201893   1.36116946   0.00000000
C    3.39929867   2.48306894   0.00000000
H    1.21853960   0.21536992   1.72566938
H    0.77255970  -1.11810958   0.65195978
H    0.41184986   0.55941981   0.19765992
H    3.21378875  -0.60772973   0.59620976
H    2.27356935  -1.66534936  -1.36103952
H    3.53102875  -0.55467981  -1.83745933
H    1.76526940   1.13476956  -2.52381897
H    0.51516980  -0.03838998  -2.06728911
H    2.56001902  -0.39163986  -3.99956870
H    3.75486851   3.48794889   0.00365000

