%chk=mol_5132.chk
# wB97XD/Def2SVP opt freq pop=full gfinput

C 5 H 9 N 1 O 1

1 2
C    1.05827963   0.34465986   1.12305963
N    2.50001907   0.57316977   1.14430952
C    2.96069884   1.38567948   0.00000000
C    2.43893909   2.84420896   0.09949996
O    2.57202888   3.35648870   1.43218946
C    4.40469837   1.38567948   0.00000000
C    5.59485769   1.38567948   0.00000000
H    0.79192966  -0.34553987   1.92945933
H    0.73236972  -0.10227996   0.17794994
H    0.49998981   1.26834953   1.29731953
H    2.97069907  -0.33221987   1.09229958
H    2.61228895   0.94691962  -0.94316965
H    1.37577939   2.89030910  -0.15955994
H    2.97799897   3.51627874  -0.57649976
H    2.62074900   2.55950904   2.00094938
H    6.66042757   1.39265954   0.01013000

