%chk=mol_1453.chk
# wB97XD/Def2SVP opt pop=full gfinput

C 5 H 12 N 2

1 2
C    1.652773  -1.669157   1.876177
C    4.195192  -1.117981   0.654110
C    4.739301   1.717137   0.597380
N    7.197060   2.196202  -0.585815
N    7.875245   4.657873  -0.735028
C   10.100076   5.000820  -1.688867
C   11.141108   7.611477  -2.005793
H    1.286960  -3.704808   1.882318
H    0.116804  -0.743928   0.843763
H    1.611899  -1.003671   3.835124
H    4.194795  -1.881600  -1.271975
H    5.680762  -2.106175   1.705799
H    4.742835   2.468984   2.529134
H    3.251973   2.698586  -0.462832
H    7.239635   1.335658  -2.315670
H   11.322427   3.421746  -2.300609
H    9.799081   9.031663  -1.339192
H   11.551650   7.927949  -4.005652
H   12.902729   7.763241  -0.937229

