%chk=mol_1054.chk
# wB97XD/Def2SVP opt freq pop=full gfinput

C 4 H 7 N 1 O 1

1 2
C    2.68685913   0.87664962  -1.26890957
N    3.86066866   1.18945956  -0.83604968
O    4.78928804   0.30617988  -1.39809954
C    6.08092737   0.71277976  -0.90884966
C    7.25532722   0.26478991  -1.73505938
C    6.83148718   1.70459938  -1.75482929
H    1.80979931   1.45587945  -0.94271964
H    2.50524902   0.04097999  -1.96527922
H    6.22157764   0.75360972   0.16642994
H    7.05855703  -0.33516988  -2.61536908
H    8.16973686   0.00988000  -1.21360958
H    7.45046711   2.43056893  -1.24240947
H    6.33747768   2.08367920  -2.64141893

