%chk=mol_0218.chk
# wB97XD/Def2SVP opt freq pop=full gfinput

C 6 H 12

1 2
C    1.17927957  -0.67109972  -0.06043998
C    2.69581890  -0.56544983  -0.07516997
C    3.15498877   0.88587970  -0.20780993
C    4.68209839   0.98608965  -0.21063992
C    5.13693810   2.40959907  -0.35751987
C    5.86934757   3.06153870   0.55418980
H    0.87225968  -1.71841943   0.03003999
H    0.74788976  -0.26955989  -0.98359960
H    0.75528973  -0.11920995   0.78532970
H    3.08868885  -1.15827954  -0.90909964
H    3.09425879  -1.00035965   0.84855968
H    2.74713898   1.47787952   0.62114972
H    2.75291896   1.31385946  -1.13499951
H    5.09121799   0.40357986  -1.04547966
H    5.08213854   0.54511982   0.71108973
H    4.85338783   2.92537904  -1.27281952
H    6.18167782   2.58902907   1.48036945
H    6.17330742   4.09054852   0.38927987

