%chk=mol_3623.chk
# wB97XD/Def2SVP opt freq pop=full gfinput

C 6 H 10 O 1

1 2
O    2.30979919  -0.94796962  -0.37959987
C    1.92016923   0.35515988   0.02597999
C    3.13811874   1.20803952   0.11028995
C    3.61861849   1.98990929  -1.08368957
C    3.01112866   2.71324897   0.09212997
C    3.88155866   3.49295855   0.97524965
C    3.65088868   3.73711848   2.27218938
H    1.50619948  -1.49386942  -0.37865987
H    1.44006944   0.28818989   1.00723958
H    1.19463956   0.74329972  -0.69646972
H    3.89022875   0.76027972   0.75109971
H    3.04213881   1.93800926  -2.00065923
H    4.68913841   2.04322910  -1.24688947
H    2.02552938   3.14326882  -0.06040998
H    4.78486824   3.90969849   0.53276980
H    2.76721907   3.35174870   2.76962900
H    4.34689856   4.32663822   2.85948896

