%chk=mol_6134.chk
# wB97XD/Def2SVP opt freq pop=full gfinput

C 4 H 5 N 1 O 2

1 2
O    1.67380941  -0.30327988  -1.07295954
C    2.61154914  -0.04933998  -0.03542999
C    2.91670895   1.39110947  -0.04619998
C    2.22525907   2.53227901  -0.38691986
N    3.00898910   3.63940859  -0.17693993
C    4.13529825   3.13410902   0.27142990
O    4.15815830   1.77711940   0.38679984
H    1.55049944  -1.26666951  -1.10542953
H    3.51058865  -0.64503974  -0.21959992
H    2.16985917  -0.34430990   0.92075968
H    1.21676958   2.60576892  -0.76824969
H    5.03507805   3.65938878   0.55882978

