%chk=mol_6996.chk
# wB97XD/Def2SVP opt freq pop=full gfinput

C 5 H 8 N 2

1 2
C    2.34946895  -0.50991982  -1.40726948
C    2.54308915   0.01794999   0.00472000
C    3.00246906   1.43409944  -0.00134000
N    2.24119925   2.50849891   0.00076000
C    3.10178876   3.57494855  -0.00884000
C    4.40643835   3.14602876  -0.01643999
N    4.33125877   1.78140938  -0.01080000
H    2.00095916  -1.54718947  -1.38039947
H    3.28667879  -0.48072982  -1.97359920
H    1.60882938   0.08388997  -1.95392931
H    3.26553869  -0.61112976   0.53748983
H    1.59586942  -0.05078998   0.55198979
H    2.73487902   4.59310818  -0.00982000
H    5.34836817   3.67473841  -0.02499999
H    5.10924816   1.13649964  -0.01507999

