%chk=mol_3995.chk
# wB97XD/Def2SVP opt pop=full gfinput

C 5 H 9 N 1 O 1

1 2
C    2.018549   0.141068   0.130221
C    4.532168   0.026097  -0.113818
C    6.025846  -2.411593  -0.142637
N    7.873960  -2.504775  -2.208901
C    9.373797  -0.169508  -2.182142
C    7.645454   2.149261  -2.341371
O    5.907341   2.258355  -0.260688
H    1.060155   1.952767   0.172570
H    0.873299  -1.550842   0.278772
H    4.761713  -4.041557  -0.323294
H    7.007974  -2.607520   1.673201
H    9.033741  -4.016065  -1.939785
H   10.505914  -0.094732  -0.447601
H   10.675800  -0.179165  -3.789676
H    8.790798   3.871728  -2.275174
H    6.582653   2.181292  -4.122721

