%chk=mol_5092.chk
# wB97XD/Def2SVP opt freq pop=full gfinput

C 4 H 8 N 2 O 1

1 2
C    1.28624952   0.18649992   0.33473986
N    2.73576903   0.06093998   0.15053995
C    3.35062885  -1.18463945   0.23536992
C    2.81630874  -2.38720918   0.47503981
C    3.44451880   1.21137953  -0.17600994
N    2.98464894   2.41271901  -0.33088988
O    4.04260826   3.27101874  -0.65711975
H    0.95415962   1.22722948   0.41229984
H    0.96927965  -0.30961990   1.25935960
H    0.75806975  -0.27020991  -0.50969982
H    4.42729855  -1.13337958   0.07488997
H    1.75562930  -2.53117895   0.64138973
H    3.44711876  -3.26996899   0.50673980
H    4.52532864   1.01692963  -0.30878988
H    3.59144878   4.13083839  -0.74657971

