%chk=mol_2745.chk
# wB97XD/Def2SVP opt freq pop=full gfinput

C 6 H 8 O 1

1 2
C    2.08789921  -1.18085957   0.61815971
C    3.15176892  -0.37252986   0.72897971
C    3.15622878   1.08957958   0.37118986
C    3.49036860   1.95136929   1.55934942
C    2.68297911   2.89246893   2.06947923
C    4.19657850   1.32759953  -0.72075969
O    5.40134811   1.11450958  -0.60578978
H    2.16058922  -2.22963905   0.89237964
H    1.12646961  -0.82302970   0.26294988
H    4.09040833  -0.79101974   1.09204960
H    2.18539906   1.38158953  -0.04965998
H    4.46627855   1.79449928   2.01925921
H    1.70055938   3.09510899   1.65497947
H    2.99419880   3.47990870   2.92831898
H    3.79045868   1.72078931  -1.66910934

