%chk=mol_5789.chk
# wB97XD/Def2SVP opt pop=full gfinput

C 5 H 11 N 1 O 1

1 2
N    3.548433  -2.429318  -1.200543
C    3.053873   0.083998  -0.139330
C    5.445491   1.717270  -0.153937
O    7.293398   0.574118   1.456733
C    9.557365   2.025956   1.539711
C   11.390929   0.632926   3.175458
C   12.468753   1.571402   5.264872
H    2.108462  -3.612268  -0.717945
H    5.125164  -3.119560  -0.316076
H    2.392280  -0.149213   1.809545
H    1.557304   1.000629  -1.233745
H    4.989236   3.606316   0.558698
H    6.196299   1.884813  -2.076790
H    9.150508   3.913094   2.290669
H   10.345571   2.212302  -0.366531
H   11.846258  -1.282670   2.588377
H   12.058380   3.465739   5.934666
H   13.778107   0.437642   6.364163

