%chk=mol_2315.chk
# wB97XD/Def2SVP opt freq pop=full gfinput

C 6 H 10 O 1

1 2
C    0.99033964  -0.00039000   0.00414000
C    2.52189898  -0.00794000  -0.01846999
C    3.04985881  -1.22668946  -0.79906970
C    3.36678863  -0.66311973  -2.14716911
C    3.38251877   0.67399979  -2.12898922
C    3.07161880   1.21713948  -0.77393973
O    4.27531815   1.67828941  -0.18201993
H    0.61915982   0.87789971   0.54259980
H    0.60892975  -0.89111966   0.51392978
H    0.56728983   0.01847999  -1.00582957
H    2.88473868  -0.03997998   1.01609969
H    2.31426907  -2.03390908  -0.86289966
H    3.96400857  -1.62193942  -0.34299988
H    3.58926868  -1.27104950  -3.01408887
H    3.61682868   1.30273950  -2.97655892
H    2.35732913   2.04469919  -0.81275970
H    4.95717812   1.00596964  -0.35147989

