%chk=mol_5011.chk
# wB97XD/Def2SVP opt freq pop=full gfinput

C 5 H 11 N 1 O 1

1 2
C    2.54415894  -0.97037959  -0.41903985
N    2.20277929   0.28948987   0.22881992
C    3.33534861   1.22930956   0.24088992
C    3.53157854   2.15840936  -0.92644966
C    3.10771894   2.71556902   0.40224984
C    1.73630929   3.28287864   0.57566983
O    4.12615824   3.41552877   1.13594949
H    1.67139935  -1.63015938  -0.41956982
H    3.35677862  -1.48139954   0.10705996
H    2.84027910  -0.81027973  -1.46054947
H    1.90388930   0.10084996   1.18653953
H    4.23537827   0.84439969   0.71815974
H    2.80549884   2.12763929  -1.73009932
H    4.54731798   2.33454919  -1.25735950
H    0.99670964   2.79620886  -0.06973998
H    1.73508930   4.35096836   0.33182988
H    1.40861940   3.17104864   1.61457944
H    4.23322821   4.32206869   0.80073971

