%chk=mol_4297.chk
# wB97XD/Def2SVP opt pop=full gfinput

C 4 H 3 N 1 O 2

1 2
C    2.108273   0.048377   0.135569
C    4.372184   0.065366  -0.020863
C    7.058788   0.090064  -0.214937
N    8.277813  -2.002184  -0.066915
O   10.832742  -1.286242  -0.341455
C   10.812635   1.397755  -0.678846
O    8.296540   2.279369  -0.564650
H    0.098946   0.020220   0.268001
H   11.631302   1.857336  -2.521594
H   11.937419   2.280011   0.815568

