%chk=mol_4089.chk
# wB97XD/Def2SVP opt pop=full gfinput

C 5 H 9 N 1 O 1

1 2
C    1.912894  -0.543674  -0.017990
C    4.667132  -0.611553  -0.589802
N    5.566094  -0.361977  -3.191294
C    6.007893   1.750019  -1.458302
C    8.646158   2.293939  -0.599894
C    8.762793   3.415056   2.015752
O    6.919761   3.904099   3.333968
H    1.606135   0.182737   1.895131
H    1.116280  -2.450125  -0.116558
H    0.863794   0.660535  -1.334147
H    5.681443  -1.932736   0.600498
H    4.103597   0.025511  -4.392498
H    4.909150   3.452189  -1.772091
H    9.526544   3.646113  -1.896453
H    9.806790   0.579692  -0.591239
H   10.691806   3.807515   2.715121

