%chk=mol_5892.chk
# wB97XD/Def2SVP opt pop=full gfinput

C 4 H 6 N 2 O 1

1 2
N    1.816084  -0.020711  -0.433824
N    4.461984  -0.032144  -0.251617
C    5.944134   2.073389  -0.102385
C    8.423832   1.288018   0.102159
C    8.378196  -1.369900   0.052251
O   10.380379  -2.910537   0.191127
C    5.917961  -2.159069  -0.175215
H    1.070738   1.617360   0.248688
H    1.035192  -1.415991   0.631849
H    5.141246   3.950227  -0.163178
H   10.068537   2.492246   0.252449
H    9.841921  -4.662370   0.072320
H    5.082740  -4.017822  -0.297273

