%chk=mol_2827.chk
# wB97XD/Def2SVP opt pop=full gfinput

C 6 H 12 O 1

1 2
C    3.848938  -1.188676   2.371058
C    5.292480  -0.564915  -0.036321
C    6.178592   2.135447  -0.031502
C    8.565675   3.018214  -0.176784
C   10.902057   1.410964  -0.406329
C    9.073406   5.824665  -0.160570
O   10.506632   6.455153   2.018775
H    3.185114  -3.147811   2.318070
H    2.194407   0.036226   2.594594
H    5.049216  -0.963874   4.042691
H    4.045696  -0.839964  -1.666909
H    6.843303  -1.910060  -0.245853
H    4.644096   3.506670   0.092351
H   10.504515  -0.598552  -0.645171
H   12.081189   1.613845   1.282047
H   12.012233   2.003242  -2.049654
H    7.332534   6.942098  -0.125648
H   10.141990   6.383495  -1.840707
H    9.661432   5.659220   3.445405

