%chk=mol_0654.chk
# wB97XD/Def2SVP opt pop=full gfinput

C 4 H 8 O 2

1 2
C    2.208920  -0.106807   0.320516
C    5.024309   0.103500  -0.163386
O    6.046538   2.152738   1.282652
C    8.408110   1.205400   2.168914
C    7.873752  -1.556114   2.576339
O    6.263478  -2.209789   0.512324
H    1.391745  -1.677434  -0.747897
H    1.239830   1.647784  -0.188387
H    1.838137  -0.460961   2.326215
H    5.383263   0.463909  -2.169765
H    9.821568   1.500821   0.685668
H    8.998460   2.189663   3.885938
H    9.574600  -2.729955   2.575772
H    6.823877  -1.875856   4.330742

