%chk=mol_5866.chk
# wB97XD/Def2SVP opt pop=full gfinput

C 4 H 7 N 1 O 2

1 2
N    3.171849  -1.109439   0.090461
C    5.707729  -0.706587   0.068351
O    7.229299  -2.415713   0.366777
C    6.418738   1.969057  -0.323313
C    8.811528   2.717237   0.069901
C    9.804863   5.341046  -0.238219
O    8.032243   6.906099  -1.500802
H    1.876952   0.288259   0.001304
H    2.574166  -2.890601   0.435771
H    4.963139   3.283342  -0.907125
H   10.196566   1.331501   0.704131
H   11.561099   5.325267  -1.330632
H   10.204144   6.164230   1.615584
H    8.037383   6.378128  -3.261100

