%chk=mol_6300.chk
# wB97XD/Def2SVP opt pop=full gfinput

C 4 H 6 N 2 O 1

1 2
O    4.919581   4.340871   4.370691
C    3.985451   3.272476   2.548919
N    5.316650   2.339330   0.532015
C    8.047739   2.564131   0.382783
C    8.946568   5.206517  -0.358727
C    8.288679   5.767690  -2.994177
N    7.764374   6.169616  -5.085140
H    1.933757   2.970498   2.343147
H    4.348525   1.603414  -0.949077
H    8.704268   1.140884  -0.970412
H    8.825323   2.080305   2.240932
H   11.003932   5.302949  -0.141011
H    8.131020   6.640649   0.891346

