%chk=mol_3667.chk
# wB97XD/Def2SVP opt pop=full gfinput

C 5 H 6 O 2

1 2
O    2.033100   0.707457  -1.622802
C    3.821990   0.537570  -0.152331
C    6.086298   2.293164  -0.148268
C    7.206150   2.563659   2.503982
O    6.560203   5.033966   3.473619
C    5.652984   6.303408   1.392350
C    5.353235   4.940103  -0.691583
H    3.939304  -1.095115   1.140847
H    7.490289   1.534495  -1.461854
H    9.276382   2.448972   2.436537
H    6.533766   1.138995   3.845612
H    5.226094   8.270783   1.697087
H    4.602995   5.617419  -2.465677

