%chk=mol_7134.chk
# wB97XD/Def2SVP opt freq pop=full gfinput

C 6 H 11 N 1

1 2
C    0.99396962  -0.03084999   0.01137000
C    2.51999903   0.00000000   0.00000000
C    3.05924892  -0.76315969  -1.20881951
C    3.00201893   1.36116946   0.00000000
C    3.39929867   2.48306894   0.00000000
C    3.88131857   3.84423852   0.00000000
N    2.76547885   4.77119827  -0.12049996
H    0.59590977   0.48953980   0.89129966
H    0.62367976  -1.06231964   0.03783999
H    0.57346982   0.45602983  -0.87747967
H    2.87535882  -0.50644982   0.90591961
H    2.73067904  -0.30860987  -2.15060925
H    2.71631908  -1.80320930  -1.19732952
H    4.15502834  -0.77157974  -1.21032965
H    4.57597828   4.00352859  -0.83153969
H    4.42559814   4.05855846   0.92529970
H    2.26116920   4.56542873  -0.98123962
H    3.12800884   5.71654797  -0.21669991

