%chk=mol_1140.chk
# wB97XD/Def2SVP opt pop=full gfinput

C 4 H 7 N 1 O 1

1 2
O    1.678379   2.015828  -1.857790
N    4.210385   1.257594  -2.014448
C    5.520211   2.563735  -0.425680
C    8.259313   2.059575  -0.270911
C    9.976242   2.875729  -2.397949
C   10.082294   4.221421   0.096187
H    0.871674   0.941707  -3.121147
H    4.701147   4.018106   0.826774
H    8.724564   0.290035   0.655981
H    9.142948   3.853605  -3.993823
H   11.525818   1.633385  -2.896799
H   11.717341   3.902114   1.288793
H    9.347946   6.132369   0.177521

