%chk=mol_7009.chk
# wB97XD/Def2SVP opt freq pop=full gfinput

C 6 H 13 N 1

1 2
C    1.18211961   0.17875993   0.19285992
C    2.66669917  -0.03109999  -0.10278996
C    2.84708905  -0.76067972  -1.43360949
C    3.38912868   1.29231954  -0.12950996
C    3.86631846   1.92010927   1.15552962
C    4.86154842   1.35400951   0.18397993
N    5.71830797   2.25975919  -0.57292980
H    1.04466963   0.68079978   1.15674961
H    0.65216976  -0.77871972   0.23211990
H    0.70683974   0.80081969  -0.57394981
H    3.08393884  -0.66450977   0.69032973
H    2.44157910  -0.17589994  -2.26693916
H    2.34042931  -1.73120928  -1.41925955
H    3.90844846  -0.93657964  -1.63992941
H    2.99659872   1.95901930  -0.89027965
H    3.71559858   1.38522947   2.08640933
H    3.79145861   2.99647880   1.25582945
H    5.35026789   0.42910984   0.48441982
H    5.23216772   3.12358880  -0.80965966
H    5.98763752   1.83840942  -1.46148944

