%chk=mol_6891.chk
# wB97XD/Def2SVP opt pop=full gfinput

C 5 H 8 N 2

1 2
C    1.864196   0.169849  -0.012642
C    4.670307   0.001247  -0.001115
N    6.170391   1.940824  -0.014135
N    8.711316   1.028087  -0.000359
C    8.638467  -1.421754   0.018349
C   10.909446  -3.077098   0.037870
C    6.024504  -2.460367   0.020693
H    1.258633   2.144820   0.003704
H    1.113918  -0.786731   1.657517
H    1.130831  -0.753793  -1.708615
H   12.632668  -1.937404   0.022790
H   10.883840  -4.294403  -1.629813
H   10.885389  -4.252035   1.735732
H    5.642080  -3.552912  -1.683708
H    5.634502  -3.526512   1.739776

