%chk=mol_4148.chk
# wB97XD/Def2SVP opt freq pop=full gfinput

C 4 H 6 N 2 O 1

1 2
C    0.92488962  -0.03813998  -0.00261000
C    2.39669919   0.08640996  -0.00320000
C    3.23909879   1.16671956  -0.00122000
O    2.82344913   2.44075918   0.00211000
C    4.54192829   0.64620978  -0.00343000
N    4.53853798  -0.69006974  -0.00670000
N    3.22760868  -1.00346959  -0.00654000
H    0.44262984   0.94445962   0.01014000
H    0.58529979  -0.59144980   0.87883967
H    0.58309978  -0.56974977  -0.89649969
H    3.58789873   3.04166889   0.00302000
H    5.48897791   1.16810954  -0.00287000
H    2.96968889  -1.98474932  -0.00879000

