%chk=mol_6479.chk
# wB97XD/Def2SVP opt freq pop=full gfinput

C 4 H 6 N 2 S 1

1 2
C    0.97151965   0.19483994   0.00940000
C    2.43327904  -0.06140998  -0.00100000
N    3.35358858   0.87955964  -0.00862000
N    4.63188791   0.35856986  -0.01714999
C    4.63276815  -0.95761967  -0.01543999
C    5.85754776  -1.79637933  -0.02363999
S    3.06470871  -1.65782940  -0.00321000
H    0.38327986  -0.72833973  -0.00157000
H    0.68853974   0.78636968  -0.86761963
H    0.69672978   0.76075971   0.90569967
H    5.63252783  -2.86719894  -0.01025000
H    6.47254753  -1.56870937   0.85261971
H    6.44897747  -1.58559942  -0.92018968

