%chk=mol_1711.chk
# wB97XD/Def2SVP opt freq pop=full gfinput

C 5 H 12 N 2

1 2
C    2.40011930  -0.39113986  -1.09620965
N    2.40518904   0.29152989   0.18760993
C    3.21952891   1.51656938   0.18450993
C    4.71921825   1.23752952   0.05263998
C    5.67724800   2.33911920   0.55973983
C    6.50486755   1.16678965   1.11301959
N    5.25939798   0.36636984   1.14068961
H    1.70434928  -1.23444963  -1.05319953
H    3.38540864  -0.79078972  -1.35261941
H    2.06200910   0.27180991  -1.89842927
H    2.77806902  -0.32551989   0.91189963
H    3.01795888   2.03744936   1.12838960
H    2.88793898   2.19219923  -0.61248982
H    4.99349785   0.88125968  -0.95056963
H    5.26425791   2.99496889   1.33523953
H    6.16105795   2.94834900  -0.20776993
H    7.26012707   0.78285968   0.41723984
H    6.96771765   1.33149946   2.08934927
H    5.37736797  -0.61037982   0.87745970

