%chk=mol_4683.chk
# wB97XD/Def2SVP opt freq pop=full gfinput

C 5 H 10 N 2

1 2
C   -1.67307937   0.75464970   0.52364981
C   -1.08115959  -0.36125985  -0.29285988
C   -0.25952992  -1.44353950   0.34919989
N    1.09035957  -1.40694952  -0.20434992
C    1.70804942  -0.07668997  -0.06244998
C    0.76049972   1.09661961   0.29706988
N   -0.54933977   1.01741970  -0.37252986
H   -2.62656903   1.15998948   0.20601992
H   -1.50834954   0.78176969   1.59320939
H   -1.59551942  -0.69592977  -1.18485951
H   -0.22909991  -1.33734953   1.44056952
H   -0.71246976  -2.41741896   0.13470994
H    1.67598939  -2.11450934   0.23324990
H    2.49283910  -0.12850995   0.70104975
H    2.20767927   0.14857996  -1.01099968
H    0.65450978   1.14698958   1.38967943
H    1.23978949   2.03750920   0.00128000

