%chk=mol_3295.chk
# wB97XD/Def2SVP opt freq pop=full gfinput

C 5 H 10 O 2

1 2
C    0.69845974   1.63301945  -0.56843984
C    2.16615915   1.88081932  -0.85716969
O    2.93098879   1.24369955   0.16102993
C    4.33469820   1.40479946  -0.04168998
O    4.78910828   2.75983882  -0.01848999
C    4.71592855   3.45151877   1.15560961
C    4.20345831   3.07040882   2.33062911
H    0.06597998   2.12140918  -1.31490958
H    0.43238983   2.01089931   0.42356986
H    0.48230982   0.55982977  -0.56930977
H    2.36080909   2.95860887  -0.85850966
H    2.42947912   1.46650946  -1.83705926
H    4.60617828   0.97698963  -1.01323962
H    4.86809826   0.81886971   0.71652973
H    5.14664793   4.43755817   1.01595962
H    3.74735880   2.09962916   2.48667908
H    4.21156836   3.75154877   3.17460895

