%chk=mol_4632.chk
# wB97XD/Def2SVP opt freq pop=full gfinput

C 4 H 10 N 2 O 1

1 2
C   -0.96186960  -1.20159960   0.52012980
C    0.08633997  -2.09375930  -0.13324995
C   -0.03417999  -3.52480865   0.37847987
O   -0.14916995  -2.05074930  -1.54845941
N    1.03675961  -2.43293905  -2.19226909
C    0.80782968  -3.06021881  -3.38525891
N   -0.28490990  -3.62316847  -3.76644850
H   -0.88194966  -0.17717993   0.13860995
H   -0.84480965  -1.17781949   1.60829937
H   -1.97525918  -1.54577947   0.28310990
H    1.07995963  -1.68946934   0.09911996
H   -1.01303959  -3.95103836   0.12799995
H    0.10046997  -3.56931853   1.46375942
H    0.71812969  -4.17140865  -0.08642997
H    1.74097931  -1.69803941  -2.22181916
H    1.69330931  -3.06514883  -4.04179859
H   -0.95589966  -3.48338866  -3.00017881

