%chk=mol_4936.chk
# wB97XD/Def2SVP opt freq pop=full gfinput

C 4 H 10 N 2 O 1

1 2
C    6.46552801   1.45847952   3.06056881
C    6.87359762   2.23431921   1.82367933
O    5.76402760   3.04073882   1.41721940
N    6.14436769   3.68382859   0.23302990
C    6.08260775   5.05654812   0.31309989
C    5.93864775   5.83714771  -0.96803963
N    6.12310791   5.71304750   1.42771947
H    7.29055738   0.83892965   3.42340875
H    5.60799789   0.81255972   2.84369898
H    6.15608788   2.14025903   3.85988855
H    7.14539766   1.53821945   1.02166963
H    7.73122692   2.87682891   2.05339932
H    5.72600794   3.27143884  -0.59823978
H    4.88001776   6.05160761  -1.13525951
H    6.32653761   5.26342821  -1.81411934
H    6.48689795   6.78161764  -0.89583969
H    6.18893766   5.00480795   2.16896915

