%chk=mol_3603.chk
# wB97XD/Def2SVP opt pop=full gfinput

C 5 H 8 O 2

1 2
O    1.754346   0.091519  -0.875472
C    4.349072  -0.029895  -0.049624
C    6.054267  -1.628585  -1.671803
O    4.844200  -2.807528  -3.806589
C    6.251441   1.213129  -1.767707
C    8.447964   2.466584  -0.632699
C   10.830965   2.305239  -1.470472
H    0.951723   1.628245  -0.258798
H    4.704133  -0.065120   1.969964
H    7.544940  -2.680406  -0.737881
H    3.033899  -2.446345  -3.741677
H    5.539562   2.135655  -3.456120
H    8.084154   3.654749   1.007035
H   11.304663   1.166263  -3.110451
H   12.352667   3.310441  -0.533640

