%chk=mol_3108.chk
# wB97XD/Def2SVP opt pop=full gfinput

C 5 H 12 O 2

1 2
C    1.876479   0.001398  -0.045353
C    4.766286  -0.085964   0.110058
C    5.569118  -1.590337   2.444040
O    5.695068  -1.410699  -2.058705
C    5.851065   2.621277   0.114404
C    8.736279   2.773249   0.099589
O    9.756316   1.643117  -2.110862
H    1.255629   1.004125  -1.747827
H    1.053768   0.943049   1.603206
H    1.087027  -1.908926  -0.175008
H    5.032171  -0.626199   4.194115
H    7.611042  -1.925366   2.467472
H    4.691906  -3.467496   2.441016
H    4.952008  -0.627748  -3.552950
H    5.128981   3.665918   1.752721
H    5.175601   3.592369  -1.591149
H    9.567759   1.865330   1.758957
H    9.327688   4.755061   0.115897
H    9.014031  -0.050229  -2.226626

