%chk=mol_5998.chk
# wB97XD/Def2SVP opt freq pop=full gfinput

C 4 H 8 N 2 O 1

1 2
O    0.97888958  -0.00692000   0.06542998
C    2.38286901  -0.02500999  -0.01547999
C    2.98807883   1.09862959   0.83445966
C    4.38981867   0.60937977   1.21310949
N    4.27954817  -0.83260971   1.15627956
C    3.09084868  -1.22263956   0.61969978
N    2.62260890  -2.41902924   0.67415977
H    0.64603978  -0.69149977  -0.53727978
H    2.69822884   0.05976998  -1.06175959
H    2.38653922   1.25855958   1.73790932
H    3.01458907   2.05309916   0.29853991
H    5.13326836   0.95010966   0.48517981
H    4.68148804   0.95608968   2.20880914
H    4.64139843  -1.40583956   1.91044927
H    1.69853938  -2.45873904   0.23978990

