%chk=mol_6960.chk
# wB97XD/Def2SVP opt pop=full gfinput

C 5 H 8 N 2

1 2
C    1.649391   0.505067  -0.411526
C    4.135968   0.200727  -0.040780
C    6.118971   2.226740   0.160135
C    7.108091   2.600055   2.846759
N    7.523529   5.328990   2.927696
N    6.035275   6.577362   1.257254
C    5.265665   4.894655  -0.341946
H    0.407330  -1.127222  -0.523190
H    0.766057   2.347531  -0.589859
H    4.844577  -1.724866   0.138215
H    7.653807   1.824852  -1.172764
H    8.856164   1.551333   3.190916
H    5.708220   2.055361   4.274107
H    7.408312   6.060409   4.709500
H    4.140598   5.360813  -2.024917

