%chk=mol_1278.chk
# wB97XD/Def2SVP opt pop=full gfinput

C 6 H 13 N 1

1 2
C    2.674813   0.668283   1.504109
C    5.095760   1.046455  -0.035754
C    4.604753   0.417724  -2.837481
C    7.006462   0.491197  -4.445260
N    6.422934  -0.176595  -7.060489
C    6.023464   3.724008   0.306173
C    8.244913   4.334370   1.352156
H    2.983424   1.120324   3.500661
H    2.042473  -1.299262   1.397339
H    1.137464   1.868051   0.809011
H    6.514736  -0.281701   0.691337
H    3.201952   1.733824  -3.619714
H    3.768681  -1.477747  -2.958839
H    8.408809  -0.835316  -3.698969
H    7.847447   2.380715  -4.426343
H    5.737039  -1.975123  -7.134566
H    8.049289  -0.173968  -8.093678
H    4.788056   5.233710  -0.351395
H    9.546953   2.906361   2.039600
H    8.807201   6.298665   1.543623

