%chk=mol_1987.chk
# wB97XD/Def2SVP opt pop=full gfinput

C 7 H 8

1 2
C    3.856345  -1.423153  -2.300269
C    4.292418   0.044201  -0.279528
C    2.908837  -0.421806   1.990656
C    1.750378  -0.810938   3.900905
C    6.188456   2.073993  -0.157169
C    6.304429   4.044487  -2.217858
C    5.352838   4.753738   0.354361
H    4.903821  -1.156682  -4.041595
H    2.453110  -2.918758  -2.263986
H    0.723141  -1.155397   5.597614
H    7.977158   1.488367   0.664371
H    4.940991   3.983429  -3.745815
H    8.152543   4.726507  -2.779976
H    6.553041   5.913463   1.541922
H    3.352488   5.151374   0.554918

