%chk=mol_2553.chk
# wB97XD/Def2SVP opt pop=full gfinput

C 6 H 8 O 1

1 2
C    1.778100   0.106713   0.108621
C    4.291871   0.011149   0.259894
O    5.626036   2.146805   0.985511
C    8.005768   2.367751  -0.289015
C    9.703857   0.081277   0.198024
C    8.246047  -2.316030  -0.172551
C    5.715401  -2.290159  -0.184588
H    0.788243   1.860133   0.503669
H    0.650425  -1.520398  -0.409428
H    8.932603   4.084530   0.404382
H    7.665031   2.640344  -2.319714
H   10.424239   0.120716   2.138187
H   11.324316   0.143203  -1.086876
H    9.278234  -4.068788  -0.428439
H    4.673406  -4.032921  -0.478535

