%chk=mol_3120.chk
# wB97XD/Def2SVP opt pop=full gfinput

C 7 H 8

1 2
C    1.872303  -0.017763   0.147663
C    4.762110   0.000000   0.000000
C    5.643705  -1.454069  -2.362025
C    8.376306  -1.996363  -2.316313
C   10.601439  -2.441394  -2.287381
C    5.672996   2.572238   0.000000
C    6.423746   4.692322   0.000000
H    1.208612   0.980806   1.836795
H    1.150711  -1.955696   0.237935
H    1.022569   0.906124  -1.500405
H    5.478335  -0.969694   1.689170
H    5.176697  -0.395198  -4.083642
H    4.631076  -3.260269  -2.480757
H   12.577885  -2.827805  -2.261416
H    7.103953   6.587831  -0.000397

