%chk=mol_6554.chk
# wB97XD/Def2SVP opt freq pop=full gfinput

C 3 H 9 N 1 O 2 S 1

1 2
C    0.99440962   0.07015997  -0.05904998
C    2.51804900   0.02310999  -0.02817999
C    3.06743884  -0.83016968  -1.16611958
S    3.22835875   1.68350935  -0.04853998
N    2.71487904   2.30534911  -1.51568937
O    2.59056902   2.50060916   0.95679963
O    4.66679811   1.59851944  -0.15237994
H    0.60119981   0.65628976   0.77783972
H    0.57486981  -0.93860966   0.01469999
H    0.62349975   0.52261978  -0.98450965
H    2.83949876  -0.41065985   0.92633969
H    2.79574895  -0.42090982  -2.14464927
H    2.67628884  -1.85128939  -1.10741961
H    4.15982866  -0.88912964  -1.12268949
H    3.52151871   2.50746894  -2.10946918
H    2.11540914   3.11777878  -1.35846949

