%chk=mol_4964.chk
# wB97XD/Def2SVP opt freq pop=full gfinput

C 5 H 9 N 1 O 1

1 2
C    1.05588961   0.02626999   0.26795989
N    2.50177908   0.00621000   0.03137999
C    2.90380907  -1.26483941  -0.62465978
C    2.79905891  -0.98840964  -2.08917928
O    3.90349841  -0.30922988  -2.69871902
C    2.79090881   0.48126981  -2.26325917
C    2.89086890   1.09325969  -0.90398967
H    0.76245970   0.96601963   0.74914968
H    0.77214968  -0.77817971   0.95579964
H    0.46980983  -0.08588997  -0.65164977
H    2.28419924  -2.11362910  -0.31553990
H    3.94129848  -1.49660945  -0.35663986
H    2.14993930  -1.62165928  -2.66850901
H    2.13549924   0.95447963  -2.97345901
H    3.92547870   1.39246953  -0.69880974
H    2.26166916   1.98411930  -0.80071968

