%chk=mol_6778.chk
# wB97XD/Def2SVP opt pop=full gfinput

C 6 H 13 N 1

1 2
C    1.897720   0.036037  -0.038891
C    4.769876   0.004441   0.064799
C    5.841994   2.075070   1.743480
N    8.431618   1.213884   2.233070
C    8.222406  -1.522212   2.657938
C    5.855373  -2.410062   1.243459
C    6.430304  -4.427118  -0.731721
H    1.187372  -1.501992  -1.227113
H    1.216511   1.823264  -0.828872
H    1.068772  -0.180563   1.845601
H    5.504602   0.247422  -1.861777
H    4.807161   2.251779   3.527779
H    5.833093   3.919972   0.805609
H    9.475446   1.496871   0.633946
H    9.948652  -2.485784   2.046743
H    8.004106  -1.876517   4.687503
H    4.519318  -3.197133   2.619935
H    7.804266  -3.750917  -2.124033
H    4.712202  -4.978011  -1.741950
H    7.214786  -6.118234   0.165143

