%chk=mol_4063.chk
# wB97XD/Def2SVP opt freq pop=full gfinput

C 4 H 6 N 2 O 1

1 2
C    0.96153963  -0.00665000  -0.00806000
C    2.43971896   0.02254999  -0.00118000
C    3.28746891   1.04992962   0.00421000
O    4.64190817   0.67851979   0.01078000
C    4.54468822  -0.70480973   0.00936000
N    5.59644794  -1.43666947   0.01505999
N    3.23636866  -1.08131957   0.00173000
H    0.54299980   1.00494957  -0.00448000
H    0.58390981  -0.53150982   0.87508965
H    0.59206975  -0.52200979  -0.90019965
H    3.10706878   2.10965919   0.00452000
H    5.31747818  -2.41800904   0.01287999
H    2.88779879  -2.02414918   0.00095000

