%chk=mol_1515.chk
# wB97XD/Def2SVP opt pop=full gfinput

C 6 H 13 N 1

1 2
C    1.950386  -0.541123  -0.057599
C    4.837472  -0.446410  -0.022223
N    5.834567  -1.955300  -2.114263
C    5.769806   2.300118  -0.178504
C    8.653378   2.525241  -0.005953
C    9.477733   5.244482  -0.068238
C   10.776409   6.377977   1.783807
H    1.164808   0.517596   1.538010
H    1.267836  -2.490508   0.088723
H    1.184310   0.274502  -1.800455
H    5.500993  -1.281971   1.753836
H    5.189018  -1.255931  -3.789619
H    5.157818  -3.755283  -1.995343
H    4.915140   3.386144   1.370165
H    5.108006   3.173398  -1.941146
H    9.549183   1.550936  -1.599842
H    9.322321   1.599653   1.723940
H    8.996721   6.320983  -1.753212
H   11.317929   5.376857   3.489795
H   11.335523   8.344615   1.619306

