%chk=mol_6895.chk
# wB97XD/Def2SVP opt pop=full gfinput

C 6 H 7 N 1

1 2
C    3.524755  -1.164430  -2.171711
C    3.883746   0.618073  -0.411639
C    6.089662   2.285095  -0.225539
C    6.602287   4.142374  -2.319469
C    5.666098   5.082248   0.201161
C    7.367286   6.429339   1.827573
N    8.743933   7.518143   3.141481
H    1.841670  -2.336854  -2.156952
H    4.902082  -1.493488  -3.655997
H    2.441753   0.832802   1.042297
H    7.721610   1.416180   0.670475
H    5.309941   4.234895  -3.907632
H    8.558872   4.473190  -2.836592
H    3.728165   5.755104   0.256096

