%chk=mol_5597.chk
# wB97XD/Def2SVP opt pop=full gfinput

C 4 H 8 N 2 O 1

1 2
N    2.316880   0.070695   1.177961
C    4.419654  -0.021429  -0.024850
N    5.698224  -2.189682  -0.419444
C    7.746158  -2.455265  -2.173090
C    9.300382  -0.057070  -2.102434
C    7.536889   2.151812  -2.567420
O    5.381222   2.168026  -0.907163
H    1.805652   1.940786   1.200033
H    4.702546  -3.758741   0.041914
H    8.913650  -4.082149  -1.654852
H    7.001586  -2.795132  -4.074986
H   10.177800   0.142599  -0.234704
H   10.811917  -0.105825  -3.514248
H    8.551521   3.931481  -2.276137
H    6.830925   2.152436  -4.513875

