%chk=mol_5456.chk
# wB97XD/Def2SVP opt pop=full gfinput

C 4 H 9 N 1 O 2

1 2
C    3.422596  -1.156928   0.727922
O    5.962785  -0.521092   0.109529
N    6.227971   2.114585   0.250842
C    8.591224   2.671884  -0.059054
C    9.462558   5.404825  -0.046563
C   10.060618   6.243466  -2.722906
O    7.610173   7.036452   0.997756
H    3.191577  -3.197889   0.514119
H    2.107158  -0.198232  -0.547605
H    3.021162  -0.640731   2.688797
H   10.045539   1.213639  -0.398014
H   11.162084   5.522573   1.124878
H    8.363890   6.196318  -3.911903
H   11.491160   5.028845  -3.595355
H   10.748025   8.195912  -2.735945
H    5.981078   6.223378   0.678771

