%chk=mol_1071.chk
# wB97XD/Def2SVP opt pop=full gfinput

C 4 H 7 N 1 O 1

1 2
C   11.279019  -1.566148  -0.032919
O   10.878889   0.686708   1.378366
N    9.818205   2.504945  -0.234175
C    9.450143   4.557925   1.036515
C    8.344294   6.826182  -0.149269
C    7.984452   8.926461   1.208650
H   12.080641  -2.992722   1.227547
H   12.609783  -1.216058  -1.576523
H    9.485178  -2.271243  -0.782422
H    9.944571   4.704946   3.059637
H    7.851680   6.699381  -2.133104
H    8.478766   9.049426   3.196037
H    7.170812  10.595940   0.336107

