%chk=mol_2685.chk
# wB97XD/Def2SVP opt pop=full gfinput

C 6 H 12 O 1

1 2
C    2.065112  -0.399167  -0.414984
C    4.910642  -0.314923  -0.791380
C    6.139153   1.718177   0.850698
C    8.940578   1.825211   0.432067
C   10.666673   2.634864   2.547596
C   10.649457  -0.070676   1.687488
O   12.795865  -0.879989   0.246742
H    1.230684  -1.883811  -1.589014
H    1.194061   1.401761  -0.941877
H    1.588693  -0.798749   1.558552
H    5.329122   0.041007  -2.788423
H    5.714456  -2.168839  -0.333726
H    5.711055   1.352288   2.846891
H    5.331616   3.571941   0.393290
H    9.403126   2.447970  -1.463952
H    9.855111   3.044708   4.383616
H   12.287718   3.795855   2.086144
H    9.801405  -1.452481   2.944741
H   13.426429   0.438813  -0.868915

