%chk=mol_3946.chk
# wB97XD/Def2SVP opt freq pop=full gfinput

C 5 H 9 N 1 O 1

1 2
C    1.03408957  -0.01817999  -0.01935999
C    2.54973912  -0.01734999   0.09619996
C    3.07795882   1.19621944   0.85808969
C    4.37919855   0.64652979   1.35916948
O    5.30056810   1.33128953   1.78471935
C    4.39393806  -0.86352968   1.26549959
N    3.01744890  -1.18476963   0.85751969
H    0.68372971  -0.90108961  -0.56561977
H    0.68895972   0.87029970  -0.55945981
H    0.55313975  -0.01951999   0.96570963
H    2.99049902  -0.04326998  -0.90926963
H    2.45318890   1.46923935   1.71362936
H    3.24242878   2.05130911   0.19849992
H    5.11363792  -1.16929948   0.50073981
H    4.62558842  -1.31065953   2.23422909
H    2.99788904  -2.02927923   0.28705990

