%chk=mol_6396.chk
# wB97XD/Def2SVP opt pop=full gfinput

C 4 H 8 N 2 O 1

1 2
O    3.528780  -0.639483   2.721225
N    4.857655  -0.120848   0.495883
C    6.240499   1.862684   0.839057
N    7.785464   2.872195  -0.960472
C    9.842695   4.527614  -0.198289
C   10.941571   6.390449  -2.038164
C    9.424518   7.310349   0.174384
H    2.546916  -2.128040   2.255483
H    6.269960   2.898349   2.652779
H    7.969485   1.766592  -2.515736
H   11.180962   3.598171   1.057321
H   10.099207   6.539567  -3.898996
H   12.967603   6.687778  -2.004584
H   10.419231   8.232006   1.708577
H    7.557884   8.069074  -0.195284

