%chk=mol_4377.chk
# wB97XD/Def2SVP opt pop=full gfinput

C 5 H 11 N 1 O 1

1 2
C    2.009610  -0.533319  -0.182944
C    4.863153  -0.225236  -0.037322
C    5.621123   2.563754   0.053177
C    8.486156   2.932383   0.047716
N    9.680481   1.945397   2.302367
C    9.832037   3.320646   4.492106
O    9.066773   5.477352   4.792969
H    1.507302  -2.539490  -0.236027
H    1.253002   0.361656  -1.888290
H    1.085855   0.316869   1.461741
H    5.727212  -1.136878  -1.683973
H    5.558610  -1.209935   1.645970
H    4.795256   3.452870   1.733710
H    4.832238   3.537284  -1.598217
H    8.918411   4.952557  -0.098001
H    9.344525   1.978600  -1.575956
H   10.284079   0.131657   2.313497
H   10.752126   2.240762   6.017757

