%chk=mol_6019.chk
# wB97XD/Def2SVP opt freq pop=full gfinput

C 4 H 5 N 1 O 2

1 2
O    0.92853969  -0.16355994  -0.13159995
C    2.13691926   0.00686000  -0.02961999
C    2.78888893   1.33284950   0.20110993
C    4.25739861   1.18620956  -0.11354996
O    4.75645828   0.09320996   0.65677971
N    4.30325842  -1.15366948   0.16950995
C    3.04003882  -1.18681955  -0.11771996
H    2.32761908   2.09109926  -0.43784985
H    2.64116907   1.59402943   1.25423956
H    4.80343819   2.08789921   0.17943993
H    4.44488811   1.00760961  -1.17904961
H    2.56097913  -2.11308932  -0.47029984

