%chk=mol_6241.chk
# wB97XD/Def2SVP opt pop=full gfinput

C 5 H 9 N 1 O 1

1 2
O    3.609755   5.784584  -0.384276
C    4.674861   3.780151  -0.875075
C    5.709656   2.013333   1.118359
N    8.309844   1.326928   0.438964
C   10.105556   3.372349   1.168077
C   11.883921   1.281140   2.135372
C    9.443377  -0.271062   2.456606
H    4.823507   3.107579  -2.844302
H    4.514556   0.322765   1.102693
H    5.541754   2.909252   2.979191
H    9.463428   4.664865   2.657616
H   10.835803   4.484603  -0.413737
H   13.179214   0.538005   0.699482
H   12.936158   1.698807   3.861485
H    9.605969  -2.275608   1.978997
H    8.589995  -0.096981   4.339151

