%chk=mol_3839.chk
# wB97XD/Def2SVP opt freq pop=full gfinput

C 4 H 8 N 2 O 1

1 2
C    1.67031944  -0.13436994  -0.15479995
C    0.82007968  -1.18513954   0.54946983
N   -0.41733986  -1.42786944  -0.16194995
C   -1.39473951  -0.46906981  -0.28143987
N   -1.39111948   0.80863971  -0.07322997
O   -0.16928995   1.30955946   0.42463982
C    0.89015967   1.12446964  -0.51388979
H    2.12810922  -0.54420978  -1.06299961
H    2.49854898   0.13274994   0.51311982
H    1.38853943  -2.12022924   0.60804975
H    0.60354978  -0.88726962   1.58252943
H   -0.75454968  -2.38366914  -0.10810996
H   -2.33549929  -0.91015971  -0.65333974
H    1.54740953   1.99912930  -0.46580982
H    0.50298983   1.07599950  -1.53954947

