%chk=mol_6057.chk
# wB97XD/Def2SVP opt freq pop=full gfinput

C 4 H 5 N 1 O 2

1 2
O    0.93453968  -0.00225000  -0.00867000
C    2.27519917  -0.02288999  -0.00174000
C    3.08541894   1.08353961   0.00486000
N    4.38731861   0.62949973   0.01066000
C    4.40043831  -0.74531972   0.00776000
C    3.09456897  -1.15955949   0.00006000
O    2.71280909  -2.44177914  -0.00470000
H    0.62139982   0.91817963  -0.00829000
H    2.87561893   2.14403939   0.00606000
H    5.21143770   1.21675956   0.01621999
H    5.32825804  -1.29892957   0.01140000
H    1.73782933  -2.45998907  -0.00982000

