%chk=mol_6579.chk
# wB97XD/Def2SVP opt freq pop=full gfinput

C 3 H 8 O 3 S 1

1 2
C    1.11625957  -0.13848995   0.02265999
C    2.62050915   0.03762999  -0.02709999
S    3.08316875   1.75991929   0.04009998
O    2.61791897   2.40350890  -1.17314959
O    2.72085905   2.27830911   1.34826946
C    4.87963772   1.68972933  -0.01453999
O    5.50430775   1.11484957   1.14118958
H    0.85559964  -1.20009959  -0.02549999
H    0.63117975   0.37096986  -0.81606972
H    0.70170969   0.27360988   0.94822967
H    3.02289891  -0.37393984  -0.95735961
H    3.09182882  -0.46448985   0.82264966
H    5.23892784   2.71712899  -0.12386996
H    5.16960812   1.11720955  -0.89935964
H    5.11832809   1.58285940   1.90871930

