%chk=mol_5258.chk
# wB97XD/Def2SVP opt freq pop=full gfinput

C 5 H 7 N 1 O 1

1 2
C    1.07574964  -0.05939998  -0.15606995
N    2.35308909  -0.12040996   0.00883000
O    2.86718893   1.18479967   0.01600999
C    4.28294802   1.11230969   0.20515992
C    4.84431791   2.52801919   0.20562991
C    6.30243778   2.53616905   0.38927987
C    7.49387693   2.54561901   0.53839976
H    0.48169982  -0.98545963  -0.19043992
H    0.52879983   0.89203966  -0.26744992
H    4.72687817   0.52177978  -0.60579979
H    4.49524832   0.61316979   1.15867949
H    4.36133862   3.11291885   0.99764961
H    4.58037806   3.02668881  -0.73475975
H    8.55159760   2.55413890   0.67030972

