%chk=mol_4624.chk
# wB97XD/Def2SVP opt freq pop=full gfinput

C 5 H 13 N 1 O 1

1 2
C    0.88471967  -0.41263983   0.08748997
C    2.33562922  -0.02959999  -0.21469992
C    2.90768886  -0.93946964  -1.32664955
O    4.24361849  -0.54418975  -1.63957942
N    2.57967901   1.40450954  -0.53372985
C    1.80778933   1.90643930  -1.67304933
C    2.36164904   2.26474929   0.63368976
H    0.48096982   0.16441993   0.92568964
H    0.82358968  -1.47045946   0.36679986
H    0.23246990  -0.26521990  -0.77861971
H    2.93377876  -0.25174990   0.67983973
H    2.31184912  -0.89045966  -2.24420929
H    2.93366885  -1.98343933  -0.99792963
H    4.25233841   0.42450985  -1.49274945
H    2.01602936   1.33343947  -2.58100891
H    2.09760928   2.93939877  -1.89702928
H    0.72926968   1.89390922  -1.49031937
H    2.94979882   1.91853929   1.48914945
H    1.30889952   2.30996895   0.93043965
H    2.69631910   3.28514886   0.41906983

