%chk=mol_0528.chk
# wB97XD/Def2SVP opt pop=full gfinput

C 4 H 10 N 2

1 2
N    1.873323   0.041423  -0.039325
C    4.624424   0.009430   0.082808
C    5.693707   2.127170   1.697446
C    8.347790   1.179737   2.227534
N    8.067468  -1.545305   2.635715
C    5.768710  -2.360325   1.303174
H    1.248750  -1.385226  -1.171781
H    1.271521   1.689925  -0.832141
H    5.374003   0.196116  -1.843163
H    4.635252   2.336552   3.468498
H    5.691723   3.948734   0.715602
H    9.573503   1.520058   0.594262
H    9.186280   2.102774   3.876509
H    9.614303  -2.493777   1.993453
H    6.193728  -3.795685  -0.128105
H    4.478159  -3.206601   2.681786

