%chk=mol_6673.chk
# wB97XD/Def2SVP opt pop=full gfinput

C 3 H 5 N 1 O 2 S 1

1 2
N    1.968433   0.530106   0.011849
S    5.115696   0.039609   0.015023
O    5.611032  -1.168796   2.412802
O    5.612146  -1.193211  -2.371512
C    6.319055   3.227501  -0.002041
C    9.091321   3.134961  -0.000548
C   11.360618   3.079441  -0.000057
H    1.205759  -0.224688  -1.595042
H    1.205532  -0.208493   1.626525
H    5.598522   4.175992   1.688357
H    5.598843   4.158342  -1.700432
H   13.374669   3.014567   0.001077

