%chk=mol_1817.chk
# wB97XD/Def2SVP opt pop=full gfinput

C 5 H 10 N 2

1 2
C    1.540410   1.065560  -0.638387
N    4.226542   0.639578  -0.812393
C    5.989827   2.478811  -0.442820
N    5.718595   4.876514  -0.650973
C    8.533834   1.537443   0.248499
C    9.924596   2.653270   2.478981
C    8.907413   0.015515   2.639078
H    0.526383  -0.682815  -1.074857
H    0.919749   2.507780  -1.985762
H    1.020471   1.655910   1.273222
H    4.770746  -1.123159  -0.287711
H    3.912357   5.274358  -1.190849
H    9.690969   1.039312  -1.371412
H    8.987141   4.128201   3.549114
H   11.947850   2.911784   2.298682
H   10.247758  -1.531944   2.587640
H    7.303999  -0.294325   3.874638

