%chk=mol_4506.chk
# wB97XD/Def2SVP opt freq pop=full gfinput

C 6 H 9 N 1

1 2
C   -0.12313995   1.38772941   0.54271984
C   -1.48796940   0.74434972   0.26857990
C   -1.59182942  -0.49826980  -0.26087990
C   -0.35674989  -1.37350941  -0.50396979
C    0.79262972  -0.82691967   0.27419990
N    2.05222917  -0.18353993   0.05037998
C    0.91965961   0.64251971  -0.21932991
H    0.07473998   1.40182948   1.62037933
H   -0.14904995   2.42669892   0.19586994
H   -2.37547898   1.33525944   0.47455981
H   -2.56553888  -0.92398965  -0.48448980
H   -0.57451981  -2.38899922  -0.15492995
H   -0.14387995  -1.43094957  -1.57726932
H    0.63323975  -1.02856958   1.33264947
H    2.49251914  -0.52502978  -0.80500972
H    0.81990969   0.87677968  -1.27799952

