%chk=mol_0429.chk
# wB97XD/Def2SVP opt pop=full gfinput

C 5 H 11 N 1

1 2
C    1.627338  -0.552858  -0.058638
C    4.497964  -0.238899   0.101289
N    5.720919  -2.158464  -1.485797
C    5.374589   2.418944  -0.724464
C    4.432920   4.493637   0.978576
C    2.995783   6.426996   0.204015
H    0.660403   0.746839   1.227547
H    1.063330  -2.471932   0.475228
H    0.932599  -0.193300  -1.974877
H    5.091678  -0.569356   2.060255
H    5.156817  -1.940446  -3.314712
H    5.121026  -3.909276  -0.952573
H    4.794613   2.772134  -2.684564
H    7.447373   2.490999  -0.703677
H    5.001935   4.399396   2.952546
H    2.397836   6.613758  -1.749565
H    2.390163   7.878627   1.522212

