%chk=mol_6115.chk
# wB97XD/Def2SVP opt freq pop=full gfinput

C 4 H 3 N 1 O 2

1 2
O    2.78997898  -1.10607958   0.06311998
C    2.21542907  -0.02296999  -0.00508000
C    2.84217882   1.26700950   0.00776000
C    2.33587909   2.54494905  -0.06039998
C    3.47338867   3.36891890   0.00070000
N    4.59964800   2.66120911   0.09912996
O    4.19988823   1.33285952   0.10352996
H    1.11516953   0.00182000  -0.08464997
H    1.30091953   2.84062910  -0.14201996
H    3.53612876   4.44815874  -0.02167999

