%chk=mol_2567.chk
# wB97XD/Def2SVP opt pop=full gfinput

C 5 H 8 O 2

1 2
C    1.816650  -0.105447   0.429875
C    4.558945   0.031256  -0.419292
O    4.761260   2.071877  -2.174508
C    7.281928   2.321056  -3.080197
C    8.279041  -0.181414  -3.893289
C    7.194849  -2.313006  -3.096940
O    5.197446  -2.394472  -1.458887
H    1.230250   1.657498   1.338228
H    1.514559  -1.683746   1.731745
H    0.573362  -0.400943  -1.200713
H    5.765422   0.401416   1.229229
H    8.482811   3.154407  -1.614393
H    7.235024   3.620810  -4.687693
H    9.870758  -0.237198  -5.182423
H    7.766094  -4.188786  -3.675385

