%chk=mol_6232.chk
# wB97XD/Def2SVP opt freq pop=full gfinput

C 4 H 7 N 1 O 2

1 2
O    2.53869891  -0.93419963  -0.03040999
C    1.94604921   0.14061995  -0.03663998
C    2.61570907   1.48278952   0.08575997
C    4.12934828   1.36086941  -0.00690000
N    4.80458784   2.62977910   0.19181992
C    4.75546837   3.63455844  -0.73896968
O    4.10356855   3.61732864  -1.77253926
H    0.84449971   0.17143993  -0.09835996
H    2.31653905   1.92392921   1.04224956
H    2.22336912   2.11953926  -0.71306974
H    4.42380810   0.96607965  -0.98675960
H    4.51222849   0.67572975   0.75775975
H    5.43609810   2.72952914   0.97702962
H    5.37783766   4.49790812  -0.44548982

