%chk=mol_3950.chk
# wB97XD/Def2SVP opt pop=full gfinput

C 5 H 11 N 1 O 1

1 2
C    1.872322   0.259044  -0.369782
C    4.672197   0.110077  -0.106618
C    6.297928  -1.609820  -1.738624
C    5.272468  -3.252181  -3.793682
O    6.818377  -2.958782  -5.974539
N    6.252197   1.140790  -2.120802
C    8.521512   2.406812  -1.188146
H    1.153848   1.894488   0.673744
H    0.992144  -1.437458   0.419897
H    1.260882   0.457673  -2.335701
H    5.255782   0.377775   1.841689
H    7.987891  -2.424235  -0.911547
H    3.331436  -2.785551  -4.323561
H    5.320600  -5.237319  -3.221189
H    6.958576  -1.134214  -6.207939
H    8.083889   4.382993  -0.760426
H    9.975883   2.389918  -2.659620
H    9.335228   1.554791   0.517029

