%chk=mol_3082.chk
# wB97XD/Def2SVP opt pop=full gfinput

C 6 H 10 O 1

1 2
C    1.792745  -0.042387  -0.058109
C    4.668266   0.012586   0.074795
C    5.720938   2.707637   0.000000
O    4.832918   4.078388   2.141494
C    8.449702   2.707637   0.000000
C   10.698779   2.707637   0.000000
C   13.427544   2.707637   0.000000
H    1.117546  -1.997459  -0.051986
H    1.116148   0.863888  -1.789306
H    0.945865   0.926816   1.559969
H    5.435816  -1.096192  -1.500726
H    5.251908  -0.932278   1.827630
H    5.012763   3.680790  -1.684237
H    5.728591   3.415113   3.602290
H   14.172209   4.636745  -0.022280
H   14.172153   1.723657  -1.659501
H   14.172058   1.762340   1.681875

