%chk=mol_6876.chk
# wB97XD/Def2SVP opt freq pop=full gfinput

C 5 H 10 N 2

1 2
C    1.04627955  -0.05954998   0.02247999
C    2.57076907  -0.02825999  -0.00998000
N    3.07292891  -1.12596953  -0.81738973
C    3.41401887  -0.61374974  -2.02909923
N    3.46063876   0.67457974  -2.16821909
C    3.11444879   1.19053948  -0.80306971
C    4.37874842   1.77162945  -0.17830993
H    0.65640974   0.79190969   0.58865976
H    0.68977976  -0.97834963   0.49943981
H    0.61764979  -0.02392999  -0.98475963
H    2.96714902  -0.07526997   1.01006961
H    2.57847905  -2.00921917  -0.79549974
H    3.60450864  -1.34088945  -2.83406901
H    2.35864902   1.97897923  -0.89367968
H    5.17000818   1.01853967  -0.09612996
H    4.17153835   2.16139913   0.82328963
H    4.76795816   2.59178901  -0.79080969

