%chk=mol_4265.chk
# wB97XD/Def2SVP opt freq pop=full gfinput

C 5 H 9 N 1 O 1

1 2
C    2.43876910  -0.49737981  -1.60145938
C    2.45494890   0.04675998  -0.17963994
C    3.35347867   1.26718950  -0.03769999
C    3.50415874   1.72914934   1.39521956
O    3.61875868   3.15379882   1.31575954
N    2.91798902   3.57011867   0.15826994
C    2.76660895   2.52193928  -0.57688975
H    1.81004930  -1.39193952  -1.65517938
H    3.44682860  -0.77267969  -1.92760921
H    2.03756928   0.23744991  -2.30590916
H    2.80662894  -0.74583972   0.49166983
H    1.42650950   0.28918988   0.11529996
H    4.32752848   1.11336958  -0.51491982
H    4.39989805   1.31626952   1.86827934
H    2.63422918   1.48976946   2.01716924
H    2.29296923   2.55136919  -1.56785941

