%chk=mol_3260.chk
# wB97XD/Def2SVP opt pop=full gfinput

C 5 H 12 O 2

1 2
C    2.024199   0.075513  -0.389718
C    4.860168  -0.053290  -0.003987
O    5.901029   2.360155  -0.601368
C    8.595495   2.487579  -0.258930
C    9.972576   1.255969  -2.469362
C    9.279746   5.299284  -0.083753
O    7.997926   6.409195   2.014032
H    1.135442  -1.735808   0.058978
H    1.577978   0.570036  -2.349459
H    1.189942   1.544227   0.806497
H    5.656328  -1.508304  -1.237185
H    5.277570  -0.525533   1.967092
H    9.095705   1.566904   1.530319
H    9.305692   2.021913  -4.271915
H    9.626057  -0.781213  -2.520271
H   12.014463   1.547648  -2.333283
H    8.687883   6.322400  -1.782125
H   11.312506   5.565810   0.186081
H    6.238288   5.879467   1.826968

