%chk=mol_5114.chk
# wB97XD/Def2SVP opt freq pop=full gfinput

C 4 H 10 N 2 O 1

1 2
C    1.04615963   0.02293999  -0.50382978
N    2.48798895   0.20510992  -0.48043981
C    2.98805881   1.31460953  -0.02981999
C    2.11204934   2.43638897   0.51322979
N    4.36831856   1.51864934  -0.03048999
C    5.23830795   0.63768971  -0.79820973
O    4.74056816   2.86270905  -0.16966994
H    0.81264967  -0.87685966  -1.08209968
H    0.53038979   0.85753965  -0.98976964
H    0.64954972  -0.12669995   0.50528979
H    1.28720951   2.03699923   1.10806954
H    1.71041942   3.01261878  -0.32494986
H    2.68391895   3.10420895   1.16322958
H    5.09877825  -0.40600985  -0.49895981
H    6.28768778   0.89350969  -0.61821979
H    5.03818846   0.73228973  -1.87045932
H    5.16065836   3.05596876   0.68930978

