%chk=mol_2187.chk
# wB97XD/Def2SVP opt pop=full gfinput

C 7 H 8

1 2
C    2.256314  -1.024742  -0.997945
C    4.624613  -0.515347  -0.275276
C    5.733656   1.967753  -0.472583
C    8.105054   2.475636   0.270155
C    9.309793   5.036498   0.092124
C   11.574819   4.900003  -1.506225
C   13.429906   4.792648  -2.811723
H    1.501066  -2.923652  -0.819669
H    1.017504   0.411186  -1.778553
H    5.782808  -2.031021   0.492633
H    4.569396   3.463547  -1.270009
H    9.272017   0.985095   1.074215
H    9.824780   5.668498   1.995419
H    7.990291   6.435424  -0.676975
H   15.071643   4.688354  -3.972620

