%chk=mol_4963.chk
# wB97XD/Def2SVP opt pop=full gfinput

C 4 H 7 N 1 O 2

1 2
C    2.240554   0.273878  -0.260177
N    4.996304   0.391362  -0.069372
C    6.277462  -1.246822  -1.885285
C    6.184166   1.574406  -2.306978
C    8.433187   3.155049  -1.738057
O    8.854237   3.444668   0.771141
O    9.732789   4.084927  -3.396443
H    1.424759   2.038674   0.447506
H    1.531944  -1.266343   0.925720
H    1.528618  -0.027722  -2.183465
H    5.151412  -2.450313  -3.102023
H    8.045036  -2.077565  -1.265266
H    4.966371   2.295110  -3.787427
H    7.546394   2.456908   1.655041

