%chk=mol_2971.chk
# wB97XD/Def2SVP opt freq pop=full gfinput

C 5 H 10 O 2

1 2
C    0.90963972  -0.40424985   0.07963997
C    2.36922908  -0.09337996  -0.02452999
C    2.95510888   1.12288964  -0.03386999
C    2.22817922   2.43233919   0.11307996
O    2.13798904   3.06632876  -1.15476954
C    4.44542837   1.25432944  -0.18509993
O    4.71229839   1.92871928  -1.40932953
H    0.72813970  -1.03634965   0.95433968
H    0.58991975  -0.95644969  -0.81039971
H    0.27440989   0.47903982   0.16396993
H    2.99811888  -0.97669965  -0.12922995
H    2.76489878   3.09957886   0.79798973
H    1.21785951   2.32644916   0.51473981
H    3.04978895   3.08010888  -1.51067936
H    4.96192837   0.28881988  -0.20148993
H    4.86812830   1.84158933   0.63768971
H    4.45997810   1.30683947  -2.11678934

