%chk=mol_0397.chk
# wB97XD/Def2SVP opt freq pop=full gfinput

C 5 H 13 N 1

1 2
C    1.03148961  -0.11888996   0.43179986
C    2.52973890   0.02615999   0.66877973
C    3.07399893   1.43502951   0.36924988
N    2.47055888   2.44066906   1.24627948
C    4.60539818   1.45057952   0.52902979
C    5.24085808   2.78519893   0.15783994
H    0.73166978  -1.16358948   0.56251979
H    0.76355970   0.18574993  -0.58443975
H    0.45170984   0.48060983   1.13950956
H    3.04616904  -0.69920975   0.02720999
H    2.75602889  -0.25701991   1.70487928
H    2.82979894   1.69622946  -0.66732979
H    2.61200905   2.17797923   2.22109914
H    1.46261954   2.47039890   1.10168970
H    5.04119825   0.67466974  -0.11344995
H    4.88383818   1.19689953   1.56005943
H    4.97772837   3.07232881  -0.86570972
H    6.33096743   2.71130896   0.21897991
H    4.92336798   3.58383870   0.83413970

