%chk=mol_6703.chk
# wB97XD/Def2SVP opt freq pop=full gfinput

C 4 H 8 O 2 S 1

1 2
O    0.96959966  -0.09595996   0.60027981
S    2.27121902   0.01458999  -0.02630999
O    2.43026900   0.20603992  -1.45309937
C    3.21326876   1.26737952   0.82926965
C    4.53692818   0.59790975   1.17882955
C    4.19000864  -0.83586967   1.57505941
C    3.27718878  -1.37364948   0.47822982
H    2.66187906   1.54124939   1.73355925
H    3.33949876   2.14124918   0.18740992
H    5.19503784   0.58897978   0.30143988
H    5.05448771   1.12974966   1.98261917
H    5.08453798  -1.45539939   1.68883944
H    3.65893865  -0.83358967   2.53454900
H    3.85656857  -1.70069933  -0.38991988
H    2.63760900  -2.18605924   0.82964969

