%chk=mol_6296.chk
# wB97XD/Def2SVP opt freq pop=full gfinput

C 4 H 7 N 1 O 2

1 2
O    3.07357907   0.28934988   1.43177938
C    2.97336888   1.50717938   1.47406936
N    3.64565849   2.39006901   0.67442971
C    4.48300838   1.93592918  -0.41102985
C    5.44603777   3.01272869  -0.78028971
C    5.66745806   3.41932893  -2.21338916
O    4.84170818   4.19325829  -1.33086956
H    2.31001902   2.02231932   2.19023919
H    3.36789870   3.36416864   0.68005973
H    3.82365870   1.67416930  -1.24588954
H    5.02008820   1.03032959  -0.11000995
H    6.24523735   3.14117885  -0.06294998
H    5.17484808   2.86459899  -3.00201893
H    6.63003778   3.83350873  -2.48609900

