%chk=mol_3897.chk
# wB97XD/Def2SVP opt pop=full gfinput

C 5 H 7 N 1 O 1

1 2
C    1.959230  -0.165918  -0.011357
C    4.720819   0.212160   0.001493
C    6.251422   2.320716   0.010847
C    8.771730   1.416671   0.013833
C    8.609668  -1.171158   0.001153
N   10.343530  -3.000318  -0.016346
O    6.162718  -1.923269  -0.000869
H    0.962419   1.645914   0.005310
H    1.368048  -1.241834   1.652169
H    1.379406  -1.204511  -1.702209
H    5.627264   4.265924   0.010885
H   10.489794   2.519288   0.017404
H    9.800800  -4.834732   0.071356
H   12.220916  -2.655783   0.091255

