%chk=mol_3729.chk
# wB97XD/Def2SVP opt freq pop=full gfinput

C 6 H 8 O 1

1 2
O    1.01296961  -0.00854000  -0.19190992
C    2.41999912   0.00000000   0.00000000
C    2.90201902   1.36116946   0.00000000
C    3.29929876   2.48306894   0.00000000
C    3.78131866   3.84423852   0.00000000
C    2.62932920   4.80108833  -0.10076997
C    2.33995914   5.74418783   0.80508971
H    0.73390973  -0.93768966  -0.16071993
H    2.88042903  -0.57973975  -0.80578965
H    2.64128900  -0.49401984   0.95105964
H    4.44868851   4.01070833  -0.85316968
H    4.37021828   4.03777838   0.90399963
H    1.99643922   4.70916796  -0.98269963
H    2.93514872   5.87674761   1.70306933
H    1.48633933   6.40213776   0.66739970

