%chk=mol_5454.chk
# wB97XD/Def2SVP opt freq pop=full gfinput

C 4 H 9 N 1 O 2

1 2
C    1.60496938  -0.38471985   0.42461982
O    3.00729895  -0.29750988   0.20204993
N    3.36255884   1.05623960   0.13206996
C    4.63528824   1.20246947  -0.09564997
C    5.62441778   0.06865998  -0.21566993
C    5.18798828   2.61784911  -0.12161995
O    5.60487795   2.99119878   1.18086958
H    1.32654953  -1.44068944   0.46494985
H    1.06028962   0.09245996  -0.39561984
H    1.34300959   0.08656996   1.37659955
H    5.17601824  -0.80553967  -0.69305974
H    5.97774792  -0.20088992   0.78311974
H    6.47943735   0.38130984  -0.82093972
H    4.42065859   3.31826878  -0.46512982
H    6.04363775   2.67659903  -0.79933971
H    4.80836821   2.94830894   1.74204934

