%chk=mol_6061.chk
# wB97XD/Def2SVP opt pop=full gfinput

C 4 H 6 N 2 O 1

1 2
O    1.852480  -0.300391   0.387772
C    4.386791   0.243359  -0.241885
C    5.454845   2.357755   1.308050
N    7.452116   1.773829   2.599810
N    8.185103  -0.682947   2.141910
C    6.441150  -2.426843   3.377678
C    6.135147  -1.785848   0.607906
H    1.531812  -2.045647  -0.080861
H    4.548419   0.684138  -2.254670
H    4.569188   4.234801   1.315212
H    7.237764  -4.246536   3.866417
H    5.140811  -1.665586   4.763773
H    6.691879  -3.127856  -0.823278

