%chk=mol_4850.chk
# wB97XD/Def2SVP opt freq pop=full gfinput

C 5 H 12 N 2

1 2
C   -1.48267949   0.74628973   0.13011995
C   -1.47232950  -0.75761968  -0.13588995
N   -0.31388986  -1.47007942   0.39905983
C    0.88820964  -1.24729955  -0.41108987
C    1.68749940   0.03180999  -0.07846997
N    0.94350970   1.19623959   0.41108987
C   -0.25024989   1.49476933  -0.37584987
H   -2.37075925   1.17270958  -0.35293987
H   -1.60968935   0.92657965   1.20627952
H   -1.58370936  -0.95244962  -1.21035945
H   -2.36649919  -1.18616951   0.33258989
H   -0.13679995  -1.17584956   1.35782945
H    1.55473948  -2.10555911  -0.26154989
H    0.63524973  -1.25579953  -1.47836947
H    2.42736912  -0.21598992   0.69290972
H    2.26754904   0.32559988  -0.96289963
H    0.68028975   1.04299963   1.38343942
H   -0.44595984   2.56783891  -0.26704991
H   -0.08800997   1.32330954  -1.44680941

