%chk=mol_5664.chk
# wB97XD/Def2SVP opt pop=full gfinput

C 4 H 10 N 2 O 1

1 2
N    5.032662  -2.407473  -0.231813
C    3.868156   0.043369   0.286142
C    5.889029   2.091209   0.308271
N    8.233140   1.554961   1.791101
C    6.213174   3.684172  -2.041282
C    5.005469   4.820786   0.256058
O    6.563926   6.545369   1.670348
H    3.648645  -3.742111  -0.333291
H    6.130215  -2.900862   1.267496
H    2.919665  -0.014815   2.125791
H    2.428525   0.433635  -1.150787
H    7.752998   0.869860   3.525662
H    9.157197   0.113440   0.895182
H    5.019868   3.297969  -3.660003
H    8.095323   4.311599  -2.550620
H    2.995896   5.211713   0.170982
H    8.087158   5.637582   2.199301

