%chk=mol_0847.chk
# wB97XD/Def2SVP opt pop=full gfinput

C 5 H 8 O 1

1 2
O    1.728438   0.091009  -0.621588
C    4.342213  -0.030349   0.086965
C    5.969002  -1.644969  -1.576976
C    6.172337   1.189828  -1.723903
C    8.424380   2.438314  -0.706625
C   10.765713   2.256711  -1.655154
H    0.968938   1.668231  -0.061322
H    4.782462  -0.027892   2.090528
H    5.070910  -2.621277  -3.136926
H    7.476153  -2.707656  -0.688276
H    5.380712   2.093817  -3.388317
H    8.145589   3.636665   0.940403
H   11.156697   1.103203  -3.305282
H   12.332807   3.259305  -0.794025

