%chk=mol_5672.chk
# wB97XD/Def2SVP opt freq pop=full gfinput

C 5 H 7 N 1 O 1

1 2
N    3.01043892  -1.16500950  -0.34975988
C    2.34228921   0.04307998   0.11485996
C    3.34479880   1.11774957   0.37079987
O    3.62423873   1.98170924  -0.73786974
C    2.91876888   2.56487918   0.36908987
C    3.69480872   3.52557874   1.09019959
C    4.34484863   4.33419800   1.69606936
H    2.31580901  -1.88647926  -0.53410977
H    3.61810851  -1.53049934   0.38076985
H    1.79595935  -0.17479993   1.03857958
H    1.60964942   0.35890988  -0.63599974
H    4.16302872   0.81612968   1.01050961
H    1.87140930   2.79621887   0.21610992
H    4.92730856   5.05169821   2.22529912

