%chk=mol_3939.chk
# wB97XD/Def2SVP opt freq pop=full gfinput

C 5 H 7 N 1 O 1

1 2
C    0.99825960  -0.05832998   0.16413994
C    2.47730899   0.13418995  -0.09435996
C    3.21585870   1.13639963   0.80015969
C    4.14229870  -0.03993998   1.13417959
O    3.25107884  -0.96741962   0.44836986
C    5.45859814  -0.00988000   0.52465981
N    6.51447773   0.04629998   0.04172998
H    0.61554974  -0.91192967  -0.40453985
H    0.43608984   0.82893968  -0.14378995
H    0.79353970  -0.23916991   1.22448957
H    2.69594908   0.25759992  -1.16237962
H    2.64563894   1.51177943   1.65566945
H    3.66659856   1.98022926   0.26980990
H    4.17513847  -0.26992989   2.20549917

