%chk=mol_6642.chk
# wB97XD/Def2SVP opt freq pop=full gfinput

C 5 H 6 N 2

1 2
C    1.02915967  -0.01725999   0.04953998
C    2.52393913   0.04786998  -0.00522000
C    3.18271875   1.26068950  -0.06916998
C    4.55743837   1.20549965  -0.13247995
N    5.25611830   0.05698998  -0.14083993
C    4.52281857  -1.06381965  -0.08304997
N    3.18341875  -1.13033962  -0.01638999
H    0.58684981   0.96810961   0.23008992
H    0.71249974  -0.68181974   0.86025965
H    0.63934976  -0.40344983  -0.89789969
H    2.65808916   2.20698905  -0.06812998
H    5.15325785   2.11199927  -0.18087992
H    5.06064844  -2.00499916  -0.09184997

