%chk=mol_5680.chk
# wB97XD/Def2SVP opt freq pop=full gfinput

C 5 H 11 N 1 O 1

1 2
N    2.00290918  -0.47200981  -1.33376956
C    2.30029917   0.03468999   0.00941000
C    3.17330885   1.29684949  -0.06789998
O    4.40165854   0.97959960  -0.77814966
C    2.43293905   2.58060908  -0.54740977
C    3.16189861   3.35489869   0.56527978
C    3.36893868   2.01586938   1.29645944
H    1.64204931  -1.42101955  -1.25923944
H    2.89737892  -0.54949975  -1.82600927
H    2.82935882  -0.74069977   0.57416975
H    1.35849953   0.23736991   0.53047979
H    4.85162830   1.83153927  -0.90892965
H    1.34426939   2.55304909  -0.42355984
H    2.66184902   2.91097903  -1.56468940
H    4.09561825   3.82409859   0.23543991
H    2.56140900   4.09693861   1.09734952
H    4.35059834   1.89282930   1.76295924
H    2.59613895   1.79770935   2.04286933

