%chk=mol_4581.chk
# wB97XD/Def2SVP opt freq pop=full gfinput

C 4 H 8 N 2 O 1

1 2
C    0.04135998   0.61088973  -0.13244995
C    1.40750945   0.13498996   0.23223990
C    2.53033900   0.79652965  -0.06602997
O    3.78559852   0.29914987   0.29312989
C    4.81472826   1.19349957   0.38289985
N    4.71965837   2.46738911   0.17952994
N    5.89655781   3.11853886   0.35449988
H   -0.45905983  -0.13418995  -0.75828969
H    0.06622998   1.55744934  -0.68185973
H   -0.55611980   0.75740969   0.77267969
H    1.47346950  -0.80370969   0.77609974
H    2.55671906   1.72978938  -0.61355978
H    5.73982763   0.66053981   0.66262978
H    5.92711782   3.91763854  -0.28688988
H    5.89903736   3.56898880   1.27575946

