%chk=mol_2160.chk
# wB97XD/Def2SVP opt freq pop=full gfinput

C 6 H 8 O 1

1 2
C   -1.74709940   0.85446966   0.41368985
C   -1.36923945  -0.42091984  -0.25873992
O   -0.34002987  -1.26446950   0.24420990
C    0.72396976  -0.61672980  -0.47541982
C    1.92296922  -0.16643994   0.20624992
C    0.85393971   0.88244969  -0.07085998
C   -0.61744976   0.85488969  -0.60419977
H   -2.68317914   1.31714952   0.12765995
H   -1.51115942   0.95229965   1.46654940
H   -2.05448914  -0.82784969  -0.99427962
H    0.87579966  -0.91105968  -1.51513946
H    2.07142925  -0.50015980   1.22839952
H    2.84396887  -0.09061996  -0.36100987
H    0.80582970   1.39410949   0.89415967
H   -0.81410974   1.32184958  -1.56474948

