%chk=mol_2664.chk
# wB97XD/Def2SVP opt pop=full gfinput

C 5 H 8 O 2

1 2
C    1.680080   1.677245  -1.048307
C    4.320765   0.751846  -0.401189
C    5.680913   2.604836   1.238432
O    8.370239   2.627853   0.916555
C    7.025473   4.852439   0.119620
C    7.493444   7.107846   1.682461
O    5.945381   8.822489   1.785980
H    0.682890   0.272895  -2.192763
H    1.759071   3.446142  -2.119441
H    0.573154   2.025144   0.664900
H    5.369884   0.403097  -2.153683
H    4.189731  -1.058247   0.596360
H    4.928954   2.726969   3.136889
H    6.842831   5.191739  -1.889537
H    9.298699   7.174289   2.721886

