%chk=mol_1073.chk
# wB97XD/Def2SVP opt freq pop=full gfinput

C 4 H 9 N 1 O 1

1 2
N    1.05162954  -0.09265997  -0.05554998
C    2.50926924  -0.05230998  -0.03843999
C    3.25621891  -0.64272976  -1.20160949
C    3.22265887   0.85138971  -1.00778961
C    4.44779825   1.58881938  -0.58816981
O    5.23615789   1.87438929  -1.73423934
H    0.65793973   0.64317977   0.53039980
H    0.70593971  -0.97368962   0.32404989
H    2.95757890  -0.18504994   0.94406968
H    2.68420887  -1.05407953  -2.02594924
H    4.17360830  -1.17905962  -0.99000967
H    2.62007904   1.43666947  -1.69428933
H    5.05842829   1.01599967   0.11738996
H    4.17679834   2.53683901  -0.11447996
H    5.35708809   1.03485954  -2.20938897

