%chk=mol_6937.chk
# wB97XD/Def2SVP opt pop=full gfinput

C 5 H 10 N 2

1 2
C    6.037392  -2.171994  -0.961323
C    4.695611   0.062399   0.255170
C    6.213760   2.504303   0.029215
C    6.524827   3.470595  -2.661736
C    6.212286   6.235038  -2.197015
N    5.343050   6.841980   0.002192
N    4.887380   4.628922   1.204625
H    4.929275  -3.898221  -0.695608
H    7.899301  -2.469059  -0.110908
H    6.287856  -1.885663  -2.993761
H    4.372108  -0.368534   2.257429
H    2.827219   0.283856  -0.617014
H    8.076141   2.288213   0.915591
H    5.054696   2.845757  -3.973962
H    8.396129   3.082937  -3.443553
H    6.675854   7.620302  -3.672947
H    5.165529   4.744555   3.110338

