%chk=mol_5825.chk
# wB97XD/Def2SVP opt pop=full gfinput

C 4 H 4 N 2 O 1

1 2
N    1.906696   0.034525   0.000000
C    4.443200  -0.049775  -0.000000
N    5.884343  -1.986348   0.000000
C    5.839783   2.266689  -0.000000
C    7.021769   4.205151   0.000000
C    8.463460   6.506951   0.000000
O    7.408123   8.562765  -0.000000
H    0.988346   1.712602  -0.000000
H    0.853306  -1.553960   0.000000
H    4.801265  -3.583469  -0.000000
H   10.532313   6.280845   0.000000

