%chk=mol_1949.chk
# wB97XD/Def2SVP opt freq pop=full gfinput

C 5 H 8 N 2

1 2
N    0.94875962  -0.03170999   0.18689993
C    2.39379907  -0.00894000  -0.05805998
C    3.07554889   1.03230953   0.85504967
N    4.03229856  -0.00704000   1.31250954
C    3.11177897  -1.05908954   0.81808966
C    2.69036913   0.01781999  -1.46902943
C    2.93559885   0.03926999  -2.64445901
H    0.69958973  -0.10188996   1.17223954
H    0.47763982  -0.80324972  -0.28178990
H    2.46436906   1.43052948   1.67507935
H    3.54956865   1.88232923   0.35183987
H    4.91222811   0.02036999   0.79415971
H    3.61333871  -1.87417936   0.28467992
H    2.51472902  -1.50747943   1.62234938
H    3.14806890   0.06338998  -3.68878865

