%chk=mol_4118.chk
# wB97XD/Def2SVP opt pop=full gfinput

C 4 H 4 N 2 O 1

1 2
C    2.026561  -0.007162  -0.197476
C    4.511797  -0.098530   0.193451
N    5.922081  -2.253687   0.564971
C    8.196290  -1.413062   0.852191
N    8.487819   1.114466   0.713957
C    6.185338   2.165513   0.288675
O    5.641588   4.380007   0.050701
H    1.064161   1.781029  -0.475247
H    0.919163  -1.729118  -0.245324
H    9.888275  -2.566437   1.194553
H   10.091496   2.120443   0.887472

