%chk=mol_6260.chk
# wB97XD/Def2SVP opt freq pop=full gfinput

C 4 H 8 N 2 O 1

1 2
O    3.62997866  -0.68135977   1.17210960
C    2.48168898   0.01995999   0.73339975
C    2.81970906   1.17317951  -0.18598993
N    4.01675844   1.66699934  -0.20038992
N    4.11142874   2.70160890  -1.05784965
C    5.47866774   2.69342899  -1.58117938
C    5.08233833   3.63995862  -0.49269980
H    4.35538864  -0.02526999   1.16870964
H    1.94227922   0.41239983   1.59978938
H    1.82579935  -0.67373973   0.20025992
H    1.98804927   1.58776939  -0.78552967
H    5.59494829   3.08508873  -2.58338904
H    6.11936760   1.85478938  -1.33648956
H    5.44567823   3.46251869   0.51203978
H    4.92826843   4.67922831  -0.75067967

