%chk=mol_2390.chk
# wB97XD/Def2SVP opt freq pop=full gfinput

C 5 H 8 O 2

1 2
C    0.87818968  -0.02368999   0.12571995
C    2.38966918   0.02410999  -0.04630998
C    2.81479883   0.03596999  -1.50768936
C    3.11736870   1.03725958   0.85390967
O    3.76613879  -0.04118998   1.57905936
C    3.15989876  -0.99817961   0.82901967
O    3.26703882  -2.19941926   0.91312969
H    0.59359980  -0.05534998   1.18330956
H    0.45704982  -0.91193968  -0.35723987
H    0.40746984   0.85927969  -0.31928989
H    3.90558863   0.04700999  -1.60998940
H    2.42330909   0.92105961  -2.02005935
H    2.44227910  -0.85114968  -2.03098917
H    2.48735905   1.63866937   1.51680934
H    3.85138845   1.68407941   0.36315987

