%chk=mol_6786.chk
# wB97XD/Def2SVP opt freq pop=full gfinput

C 7 H 10

1 2
C    2.10705924  -0.19369993  -0.05020998
C    0.77387971  -0.81128967   0.22306992
C   -0.39907983  -1.37506950  -0.51931983
C   -1.62704933  -0.50129980  -0.23730992
C   -1.51048934   0.74316967   0.28598988
C   -0.14188996   1.39314950   0.52067983
C    0.88770962   0.64292979  -0.26791990
H    2.65422893  -0.54233980  -0.91915965
H    2.74297905   0.05382998   0.79255968
H    0.63193971  -1.01720965   1.28580940
H   -0.59781975  -2.39040899  -0.15917994
H   -0.21781991  -1.43188941  -1.59827948
H   -2.60542893  -0.92864960  -0.43306983
H   -2.39379907   1.33113956   0.51439983
H    0.08758997   1.41004944   1.59189939
H   -0.17806993   2.43026900   0.16966994
H    0.73812973   0.87420964  -1.32437956

