%chk=mol_5815.chk
# wB97XD/Def2SVP opt freq pop=full gfinput

C 6 H 9 N 1

1 2
C    1.00171971   0.03512999  -0.02103999
C    2.52449918   0.00946000   0.00114000
C    3.09097862   1.33686948   0.47443983
C    3.83641863   1.14457953   1.57766938
C    3.88905859  -0.25278991   2.02384925
N    4.48771858  -1.25847960   1.16318953
C    3.05598903  -1.01108956   1.00482965
H    0.60639977  -0.93376964  -0.34416988
H    0.63142979   0.79992974  -0.71186978
H    0.58686978   0.24405991   0.97159964
H    2.90728879  -0.22052991  -1.00014961
H    2.92716885   2.28402925  -0.01780999
H    4.35585833   1.93421924   2.10468936
H    3.75546861  -0.47714984   3.07369876
H    5.02404833  -0.81468970   0.41629985
H    2.37519932  -1.78279936   1.33065939

