%chk=mol_3146.chk
# wB97XD/Def2SVP opt pop=full gfinput

C 6 H 12 O 1

1 2
C    4.412038  -0.907768  -2.697112
C    4.693343   0.065328  -0.006595
O    6.009877  -1.769181   1.460494
C    6.172375   2.530419   0.043861
C    4.803703   4.927197  -0.961039
C    6.155726   6.416905   1.146572
C    6.306659   3.914265   2.630404
H    3.358346   0.424262  -3.876679
H    3.426980  -2.727706  -2.708601
H    6.262080  -1.222407  -3.573529
H    2.820397   0.307364   0.840437
H    7.648780  -2.051997   0.677883
H    8.060740   2.311400  -0.801112
H    2.742030   4.889667  -0.756249
H    5.276040   5.485516  -2.892982
H    8.002877   7.166503   0.584832
H    5.055603   7.923357   2.031663
H    8.040860   3.621358   3.714068
H    4.677413   3.586719   3.867797

