%chk=mol_5095.chk
# wB97XD/Def2SVP opt freq pop=full gfinput

C 4 H 10 N 2 O 1

1 2
C    0.98318964  -0.10068996   0.11130996
N    2.43502903  -0.00622000   0.14627995
C    3.15534902  -1.19822955  -0.29068992
C    3.09857893   1.22194958   0.17004994
C    2.32716918   2.47437906   0.57194978
N    4.35955858   1.29682946  -0.17462994
O    4.84864807   2.60683894  -0.13551995
H    0.57104981   0.55430979  -0.66358978
H    0.55837983   0.17774993   1.08069956
H    0.64228976  -1.11873949  -0.10619996
H    2.63102913  -2.11164927   0.01046000
H    4.15195847  -1.24835956   0.16103993
H    3.25908899  -1.20207953  -1.38047945
H    1.40820944   2.23656917   1.10977960
H    2.07599926   3.04078889  -0.32944989
H    2.93193889   3.10026884   1.23470950
H    5.77888823   2.48555899  -0.39871985

