%chk=mol_4455.chk
# wB97XD/Def2SVP opt freq pop=full gfinput

C 5 H 11 N 1 O 1

1 2
C    1.17788947   0.23840991   0.09877996
C    2.66989899  -0.10817996  -0.01380999
C    3.07606888  -1.02707970   1.14732957
N    2.88917875  -0.84639966  -1.26652956
C    3.48256850   1.16748953  -0.10022996
C    3.73840857   2.05090928   1.09917963
O    4.74753809   1.17674959   0.57612979
H    0.85072970   0.87633967  -0.73085970
H    0.97179967   0.78501970   1.02611959
H    0.55306983  -0.66219974   0.09727997
H    2.93002892  -0.53744984   2.11615920
H    4.13073826  -1.31937945   1.08276963
H    2.47953892  -1.94727933   1.15686953
H    2.49100924  -0.33422989  -2.05129933
H    2.39808917  -1.73838925  -1.23186946
H    3.42031860   1.65781939  -1.06443965
H    3.30118895   1.79708934   2.05533910
H    3.86863852   3.11296892   0.93364966

