%chk=mol_5596.chk
# wB97XD/Def2SVP opt freq pop=full gfinput

C 4 H 4 N 2 O 1

1 2
N    0.95526963  -0.05270998  -0.13320994
C    2.23024940  -0.06843998   0.01401999
O    2.91094899   1.11770952   0.04932998
C    4.29605818   1.07543957   0.21431993
C    4.99115849  -0.05079998   0.33780986
C    4.15596867  -1.24933946   0.28162989
N    2.87833881  -1.26070952   0.13184996
H    0.68156976   0.93018967  -0.20017992
H    4.71320820   2.07253933   0.22740993
H    6.06041765  -0.11461996   0.46702984
H    4.69355822  -2.20681906   0.37819988

