%chk=mol_6557.chk
# wB97XD/Def2SVP opt freq pop=full gfinput

C 3 H 6 O 3 S 1

1 2
C    0.95351964  -0.00864000   0.07747997
C    2.44497919   0.05521998   0.09242997
C    3.14700890   1.14794958  -0.24966991
S    4.87406778   1.10782957  -0.21338992
O    5.16856766   2.69047904  -0.12250996
O    5.35318804   0.56430978   1.03784955
O    5.38982821   0.65327978  -1.48464942
H    0.62087977  -0.79046971  -0.61202979
H    0.50201982   0.93800968  -0.23576991
H    0.58087981  -0.25006989   1.07756960
H    2.96293879  -0.85171968   0.40211987
H    2.68085885   2.06754923  -0.57149976
H    5.92818785   2.81006885   0.48593983

