%chk=mol_3928.chk
# wB97XD/Def2SVP opt pop=full gfinput

C 5 H 11 N 1 O 1

1 2
C    1.984137  -0.104936   0.149855
C    4.839116   0.108999  -0.001436
C    5.910818   2.238210   1.603754
C    8.533247   1.284239   2.243842
N   10.309363   1.807769   0.170926
C    8.018656  -1.538577   2.576150
O    5.984498  -2.190930   0.892744
H    1.320767  -1.700111  -0.990708
H    1.068489   1.620081  -0.528500
H    1.365384  -0.469446   2.091076
H    5.402841   0.338866  -1.981661
H    4.822751   2.450484   3.355776
H    5.878900   4.064971   0.630677
H    9.279935   2.138641   3.971543
H    9.768637   0.818403  -1.397528
H   12.043470   1.100614   0.630394
H    9.657804  -2.733300   2.174054
H    7.383595  -1.944264   4.504502

