%chk=mol_3701.chk
# wB97XD/Def2SVP opt freq pop=full gfinput

C 5 H 6 O 2

1 2
O    1.17821956  -0.54314977  -0.40914986
C    2.33075905  -0.28149989  -0.09378997
C    2.87592888   1.08005953  -0.25367990
C    4.14023829   1.35496950   0.09605996
C    4.78706837   2.66618896  -0.01655999
C    4.55734825   3.68691850   1.07013965
O    5.83340788   3.06521869   0.88295972
H    3.01507902  -1.04003966   0.32223988
H    2.20197916   1.82421923  -0.66105980
H    4.77268839   0.56587976   0.49927983
H    4.87392807   3.03259897  -1.03538966
H    3.99539852   3.41015887   1.95355928
H    4.46149826   4.72702789   0.78414965

