%chk=mol_2093.chk
# wB97XD/Def2SVP opt freq pop=full gfinput

C 5 H 12 N 2

1 2
N    1.98758924   1.41267943   2.76215911
C    3.22091866   1.59598947   1.99147928
C    2.92949891   2.15840936   0.58811975
N    4.12746859   2.29142904  -0.25139990
C    5.07052803   3.29966879   0.24545990
C    6.35904741   2.84151888   0.87012964
C    6.37239742   3.48682880  -0.48351982
H    2.22546911   1.02668965   3.67483878
H    1.40703952   0.71184969   2.30328918
H    3.73821855   0.63303977   1.91141927
H    3.87278843   2.27873898   2.54636908
H    2.41426921   3.12362885   0.66317976
H    2.24247932   1.47490942   0.07280997
H    3.82566833   2.54378915  -1.19301951
H    4.62307835   4.21101856   0.64003974
H    6.55629730   1.77676940   0.92268962
H    6.74344730   3.40733886   1.71013939
H    6.76783752   4.49327850  -0.56197977
H    6.58299780   2.85838890  -1.34095943

