%chk=mol_6868.chk
# wB97XD/Def2SVP opt freq pop=full gfinput

C 5 H 8 N 2

1 2
C    1.01022959   0.04718998   0.00805000
C    2.52029896   0.03192999  -0.01941999
N    3.12278891   1.18226957   0.00328000
C    4.49030828   1.15085959  -0.02283999
C    5.21642780   0.02726999  -0.00915000
C    4.57956791  -1.31759953   0.02882999
N    3.14821887  -1.18777955  -0.07151998
H    0.60397977  -0.96748966   0.00406000
H    0.63910973   0.58350980  -0.87003970
H    0.67013973   0.56429982   0.90990967
H    4.98012829   2.12075925  -0.04884998
H    6.29837751   0.08206997  -0.02443999
H    4.94755793  -1.92615938  -0.80327976
H    4.84136820  -1.82522941   0.96281964
H    2.60162902  -2.03385925   0.01394999

