%chk=mol_0735.chk
# wB97XD/Def2SVP opt freq pop=full gfinput

C 5 H 8 O 1

1 2
C   -0.02384999   0.07928997   0.03175999
C    1.41624939  -0.29711992   0.12967995
C    2.42779922   0.54555982  -0.10519996
O    3.73627853   0.14457995  -0.00796000
C    4.73503780   1.04988968  -0.25651988
C    6.02327776   0.70377970  -0.21632992
H   -0.52365983  -0.54915982  -0.71184969
H   -0.15875994   1.12574959  -0.26029989
H   -0.51625979  -0.07208998   0.99721962
H    1.63959932  -1.32395959   0.40779984
H    2.27871919   1.57874942  -0.38660985
H    4.41227865   2.05573916  -0.48451984
H    6.31819773  -0.31434986   0.01528999
H    6.80280733   1.43021953  -0.41534984

