%chk=mol_6013.chk
# wB97XD/Def2SVP opt freq pop=full gfinput

C 4 H 6 N 2 O 1

1 2
O    0.93596965  -0.08099997   0.13345994
C    2.35827923   0.01773999   0.09433997
C    2.77796888   1.30718946  -0.55976975
C    3.80398870   1.11582959  -1.62247944
N    4.24330854  -0.01390999  -2.07206917
N    3.73106861  -1.20928955  -1.58332944
C    2.87207890  -1.19808948  -0.61606973
H    0.59965974   0.65628976   0.67153972
H    2.71626902  -0.03519998   1.12826955
H    3.20750880   1.98414922   0.18802993
H    1.93077922   1.84115922  -1.00489962
H    4.22147846   2.03406930  -2.06798911
H    2.50515914  -2.17111921  -0.24887991

