%chk=mol_6560.chk
# wB97XD/Def2SVP opt freq pop=full gfinput

C 3 H 4 O 3 S 1

1 2
C    0.99999964   0.00000000   0.00000000
C    2.44399905   0.00000000   0.00000000
C    3.63415861   0.00000000   0.00000000
S    5.41796780  -0.00245000   0.00433000
O    5.65020752  -0.82485968   1.36796951
O    5.66526794  -0.78258967  -1.17525959
O    5.65437746   1.39993954   0.22020991
H    0.60597974   1.02085960   0.01169000
H    0.60598981  -0.52054983   0.87825966
H    0.60596979  -0.50031978  -0.88992965
H    5.72377777  -0.18235993   2.10348916

