%chk=mol_6386.chk
# wB97XD/Def2SVP opt pop=full gfinput

C 4 H 5 N 1 O 2

1 2
O    3.708361  -0.898092   2.802483
N    4.702168   0.595642   0.807669
C    6.416867  -0.795046  -0.837489
C    5.107798  -2.892566  -2.107328
C    4.047264  -4.609099  -3.146054
C    5.346205   2.995424   1.599181
O    6.875069   4.399282   0.574401
H    2.040602  -1.316931   2.132650
H    7.988099  -1.491561   0.317644
H    7.202616   0.504992  -2.243917
H    3.113645  -6.136451  -4.070886
H    4.232741   3.602706   3.253901

