%chk=mol_6466.chk
# wB97XD/Def2SVP opt freq pop=full gfinput

C 4 H 5 N 1 O 1 S 1

1 2
C    0.96080965   0.00783000  -0.00814000
C    2.43986917   0.08811997  -0.00103000
C    3.21754885   1.17919946   0.00436000
S    4.91703796   0.85245967   0.01229000
N    4.59955835  -0.80435973   0.00869000
C    3.26918864  -1.14174962   0.00169000
O    2.82171917  -2.27596927  -0.00170000
H    0.50593984   1.00377965  -0.00483000
H    0.60030979  -0.52839983   0.87556964
H    0.60853982  -0.51887983  -0.90079963
H    2.84190893   2.19412899   0.00383000
H    5.31467819  -1.51849937   0.01167999

