%chk=mol_4797.chk
# wB97XD/Def2SVP opt freq pop=full gfinput

C 4 H 10 N 2 O 1

1 2
C    1.22917950   0.37227985  -0.14654994
C    2.72344899   0.35575986  -0.09207997
N    3.39953876   1.45494950  -0.13405995
O    4.76704836   1.14504957  -0.05478998
C    5.50701761   2.36853909  -0.00968000
C    6.99616718   2.03029919   0.07489997
N    7.84755707   3.21970868   0.11461996
H    0.89848965  -0.23447992  -0.99349964
H    0.85190970   1.39232945  -0.25519991
H    0.83743972  -0.06812998   0.77353972
H    3.21135879  -0.63139975  -0.00657000
H    5.19539833   2.94817901   0.86781967
H    5.29765797   2.94990897  -0.91604966
H    7.27973700   1.40575945  -0.78011972
H    7.18030691   1.42469954   0.96932966
H    7.72853708   3.75409865  -0.74588972
H    8.82516670   2.93059897   0.13645995

