%chk=mol_3068.chk
# wB97XD/Def2SVP opt pop=full gfinput

C 6 H 8 O 1

1 2
C    1.665831   0.221363  -0.011471
C    4.507186   0.042953  -0.013663
C    5.533855  -2.609221   0.010488
O    4.888098  -3.814847  -2.300099
C    5.931888   2.150489   0.000000
C    8.588843   2.150489   0.000000
C   10.837919   2.150489   0.000000
H    1.004597   2.181802   0.046752
H    0.887302  -0.748180   1.642720
H    0.881444  -0.650633  -1.715815
H    4.699144  -3.689237   1.565978
H    7.586098  -2.706352   0.233306
H    5.604455  -2.775800  -3.636721
H    5.021324   3.992576  -0.000605
H   12.851026   2.151793   0.002362

