%chk=mol_7011.chk
# wB97XD/Def2SVP opt pop=full gfinput

C 6 H 13 N 1

1 2
C    2.355941   0.021486  -1.230042
C    5.192079   0.130013  -1.671935
C    6.591913   1.121137   0.652522
C    9.422854   1.192531   0.147512
C   10.442381   3.317188  -1.580359
C   12.581248   3.516327   0.377718
N   10.828603   2.416827   2.255804
H    1.395846  -0.706493  -2.910688
H    1.598368   1.902784  -0.822182
H    1.899969  -1.221670   0.359350
H    5.581439   1.342140  -3.307606
H    5.882491  -1.764286  -2.154855
H    6.201477  -0.120527   2.267010
H    5.879940   3.004419   1.145344
H   10.190859  -0.678657  -0.328321
H    9.246203   5.005242  -1.691551
H   11.006824   2.752386  -3.484655
H   14.221758   2.320659  -0.034336
H   13.227535   5.430468   0.807367
H   11.641431   1.193929   3.500340

