%chk=mol_1316.chk
# wB97XD/Def2SVP opt freq pop=full gfinput

C 5 H 12 N 2

1 2
C    0.88115966  -0.08243997   0.14741994
C    2.39706898  -0.17876993  -0.04265998
C    2.71712899  -1.12197959  -1.20373964
C    3.02348900   1.20223951  -0.29790989
N    2.90480900   2.04599929   0.87656969
C    3.25373864   3.36196852   0.91154963
N    3.43461871   4.16543865  -0.07091998
H    0.62916976   0.53115982   1.01826966
H    0.44683984  -1.07501960   0.30724990
H    0.39823985   0.35993984  -0.73052973
H    2.82896900  -0.60738981   0.87104964
H    2.31342912  -0.74156970  -2.14809942
H    2.29018903  -2.11487937  -1.02778959
H    3.79936838  -1.24067950  -1.32066953
H    2.53426909   1.67404938  -1.15778959
H    4.08646822   1.08810961  -0.54054976
H    3.00930905   1.55469942   1.76000929
H    3.37611890   3.73698854   1.94124925
H    3.26007867   3.68376875  -0.95315963

