%chk=mol_1113.chk
# wB97XD/Def2SVP opt pop=full gfinput

C 4 H 5 N 1 O 1

1 2
O    1.783467   0.035376  -0.011603
C    4.310371  -0.029499  -0.000378
C    5.838744   2.063449   0.007805
N    8.291268   1.211485   0.018198
C    8.306386  -1.383280   0.016554
C    5.834189  -2.204989   0.005008
H    1.200373   1.777439  -0.013058
H    5.432774   4.064631   0.007313
H    9.847986   2.322133   0.025851
H   10.069028  -2.418698   0.023735
H    5.205440  -4.149536   0.000926

