%chk=mol_0048.chk
# wB97XD/Def2SVP opt pop=full gfinput

C 4 H 10

1 2
C    1.851648  -0.108716   0.001814
C    4.721991   0.009108  -0.007275
C    5.667326   2.735624   0.028818
C    8.537745   2.853430   0.018727
H    1.214980  -2.076752  -0.023640
H    1.062744   0.842383  -1.657838
H    1.077730   0.792098   1.696029
H    5.435325  -0.961455  -1.692004
H    5.449441  -1.011060   1.642644
H    4.952783   3.706339   1.713698
H    4.938931   3.755226  -1.620761
H    9.324646   1.902293   1.678757
H    9.173808   4.821296   0.044994
H    9.310965   1.951256  -1.674638

