%chk=mol_6734.chk
# wB97XD/Def2SVP opt pop=full gfinput

C 5 H 8 N 2

1 2
C    1.793766   0.067010   0.052081
C    4.597477   0.005556  -0.031048
C    6.217520   2.050995  -0.209627
N    8.634480   1.165356  -0.239712
N   10.805776   2.683241  -0.361750
C    8.634423  -1.402914  -0.105144
C    6.153515  -2.189380   0.035621
H    1.085837   2.009762   0.100439
H    1.100123  -0.910697   1.737093
H    1.005240  -0.864663  -1.617171
H    5.826158   4.053160  -0.330419
H   10.536829   4.353022   0.551252
H   12.289853   1.848152   0.529199
H   10.374785  -2.472140  -0.131941
H    5.528621  -4.132869   0.156658

