%chk=mol_3981.chk
# wB97XD/Def2SVP opt freq pop=full gfinput

C 5 H 9 N 1 O 1

1 2
C    0.97344965  -0.00462000   0.17533994
C    2.47303915   0.02815999  -0.04111999
C    3.26946878   1.04791963   0.80037969
N    4.21205854  -0.02927999   1.03093958
C    3.29408884  -1.08211958   0.64857978
C    5.29435778  -0.06112998   1.85347939
O    5.83233786   0.91559964   2.35801935
H    0.52914977  -0.86011970  -0.34277987
H    0.50870985   0.90496969  -0.21765992
H    0.72001976  -0.08281997   1.23753953
H    2.70740891   0.10712996  -1.11296964
H    2.79081917   1.39638948   1.72005928
H    3.68464851   1.88988924   0.24149992
H    3.72701859  -1.82713938  -0.02305999
H    2.82525897  -1.56845951   1.50915945
H    5.65608788  -1.08728957   2.03087926

