%chk=mol_2552.chk
# wB97XD/Def2SVP opt freq pop=full gfinput

C 6 H 6 O 1

1 2
C    0.91190964   0.01380000  -0.00082000
C    2.24398923  -0.00498000   0.00117000
O    3.03391886   1.13674951   0.00546000
C    4.35855818   0.72107971   0.00822000
C    5.39809799   1.55422938   0.01428000
C    4.37694836  -0.71511972   0.00428000
C    3.11191893  -1.14951956   0.00015000
H    0.37711987   0.95727962   0.00058000
H    0.33042988  -0.90076965  -0.00352000
H    6.41876793   1.18983960   0.01685999
H    5.24048758   2.62723899   0.01717999
H    5.26437807  -1.32655942   0.00494000
H    2.78743887  -2.17728925  -0.00316000

