%chk=mol_5805.chk
# wB97XD/Def2SVP opt pop=full gfinput

C 4 H 6 N 2 O 1

1 2
N    2.459970   0.573683  -1.285959
C    4.443388   0.427343   0.119865
N    6.080420   2.319903   0.841476
C    6.665272   4.256778  -1.070303
C    4.972040   4.872319   1.096495
C    5.916676   6.389939   3.228106
O    5.993096   8.700336   3.109261
H    1.661069  -1.185860  -1.458264
H    5.020832  -1.406221   0.930010
H    5.836703   3.955159  -2.915148
H    8.613542   4.868615  -1.022002
H    2.963582   5.014596   0.723519
H    6.521237   5.352347   4.930825

