%chk=mol_6135.chk
# wB97XD/Def2SVP opt pop=full gfinput

C 4 H 3 N 1 O 2

1 2
O    5.229647  -2.092947   0.269097
C    4.192792  -0.029177   0.039892
C    5.435929   2.377086   0.010431
C    4.551462   4.812244  -0.227164
N    6.524317   6.492872  -0.140633
C    8.513632   5.033815   0.143222
O    8.012628   2.514866   0.251674
H    2.119574   0.058676  -0.166617
H    2.621504   5.445302  -0.453761
H   10.475205   5.584500   0.299087

