%chk=mol_0084.chk
# wB97XD/Def2SVP opt freq pop=full gfinput

C 4 H 6 O 1

1 2
O    0.93760967   0.06924997   0.01516999
C    2.36103916   0.01673999   0.01585999
C    2.92738891   1.43281937   0.00000000
C    4.37138844   1.43281937   0.00000000
C    5.56154823   1.43281937   0.00000000
H    0.62064976  -0.85028970   0.02541999
H    2.68622899  -0.54515982  -0.86696965
H    2.68615890  -0.52560979   0.91083968
H    2.54260921   1.98424923   0.86635971
H    2.54262900   1.96492922  -0.87837970
H    6.62743759   1.43767941  -0.00005000

