%chk=mol_4187.chk
# wB97XD/Def2SVP opt freq pop=full gfinput

C 5 H 11 N 1 O 1

1 2
C    0.98344964   0.10618996   0.07353997
C    2.47970891  -0.12601995  -0.01740999
O    3.21379876   0.92341965   0.68105972
C    4.11868858  -0.07063997   1.24485946
C    3.14142871  -1.20820951   0.88332969
C    2.38688922  -1.83637941   2.03284931
N    3.82461858  -2.20981932   0.04349998
H    0.43930984  -0.74396968  -0.34911984
H    0.69963974   0.99955964  -0.49246982
H    0.65202981   0.24657990   1.10579956
H    2.79310894  -0.14485994  -1.07025969
H    5.08463812  -0.04745998   0.72787976
H    4.27891827   0.09903996   2.31345916
H    1.93925929  -1.07618952   2.68273902
H    3.05234885  -2.44440913   2.65796900
H    1.58014941  -2.48298907   1.67304933
H    4.37277794  -1.82141924  -0.72475976
H    3.19482875  -2.89198899  -0.37896985

