%chk=mol_1224.chk
# wB97XD/Def2SVP opt freq pop=full gfinput

C 5 H 8 N 2

1 2
C    1.07366967  -0.01098000   0.02950999
C    2.58514881  -0.01012000   0.07852997
C    3.27496886  -1.35623956  -0.08310997
C    3.40760875  -1.71477938  -1.50358939
C    3.51418877  -2.01407933  -2.66282916
N    3.17761898   1.14124966   0.23137991
N    4.52684784   1.12882960   0.23289990
H    0.68050975   0.99624962   0.19282992
H    0.68560970  -0.67434973   0.80717969
H    0.74087971  -0.36848986  -0.94850963
H    2.67264915  -2.11147928   0.43451983
H    4.25384855  -1.35401952   0.40525985
H    3.60663867  -2.28111935  -3.69027853
H    4.88838816   0.95707965  -0.70973969
H    4.87152815   2.06090927   0.47771981

