%chk=mol_6997.chk
# wB97XD/Def2SVP opt pop=full gfinput

C 7 H 10

1 2
C    1.947911   0.002476  -0.090877
C    4.765020   0.001720  -0.038286
C    6.325915  -1.398076  -1.978751
C    5.157044  -2.877013  -4.073456
C    6.239403   1.459454  -2.004395
C    8.445886   2.820227  -1.225695
C   10.295058   3.969861  -0.577765
H    1.217777   1.340043   1.308390
H    1.222861  -1.876215   0.380874
H    1.189620   0.549438  -1.936005
H    5.463671  -0.028006   1.889688
H    8.035040  -2.314348  -1.306103
H    3.505083  -1.938084  -4.889232
H    4.571531  -4.739471  -3.388222
H    6.535882  -3.157241  -5.590434
H    5.173163   2.341692  -3.519653
H   11.930162   4.984625  -0.000359

