%chk=mol_0894.chk
# wB97XD/Def2SVP opt pop=full gfinput

C 5 H 4 O 1

1 2
O    1.880826   0.004573   0.006671
C    4.573137   0.000000   0.000000
C    5.443640  -1.474856  -2.186508
C    6.153553  -2.682069  -3.974453
C    5.484023   2.572238   0.000000
C    6.234774   4.692322   0.000000
H    1.371431   1.208348   1.293442
H    5.176281  -0.956806   1.734599
H    6.768772  -3.746136  -5.568664
H    6.909840   6.589834  -0.020220

