%chk=mol_0847.chk
# wB97XD/Def2SVP opt freq pop=full gfinput

C 5 H 8 O 1

1 2
O    0.91464967   0.04815998  -0.32892987
C    2.29779911  -0.01605999   0.04601998
C    3.15865874  -0.87047964  -0.83449966
C    3.26625896   0.62962979  -0.91224968
C    4.45798826   1.29029953  -0.37392986
C    5.69696760   1.19419956  -0.87586969
H    0.51273978   0.88278967  -0.03244999
H    2.53076911  -0.01476000   1.10625958
H    2.68340898  -1.38711941  -1.65998936
H    3.95620847  -1.43282950  -0.36421987
H    2.84734893   1.10799956  -1.79301941
H    4.31045818   1.92443931   0.49763983
H    5.90386772   0.58378977  -1.74907935
H    6.52623749   1.72474945  -0.42017984

