%chk=mol_5268.chk
# wB97XD/Def2SVP opt freq pop=full gfinput

C 5 H 11 N 1 O 1

1 2
C    1.99398923  -0.50511980  -1.00799966
O    1.80410933   0.70255977  -0.28236988
C    3.04675889   1.36898947   0.02611999
C    3.49599862   2.41572905  -0.95268965
C    2.95499897   2.84281898   0.38879988
C    1.59936941   3.50646853   0.41277984
N    3.91488838   3.38261867   1.37334943
H    1.01355958  -0.93787968  -1.22128952
H    2.57189894  -1.21707964  -0.41176987
H    2.50465894  -0.30464989  -1.95427930
H    3.81256866   0.78564972   0.52905983
H    2.88596892   2.58676910  -1.83226931
H    4.55803823   2.51574898  -1.13885951
H    0.95187962   3.16546893  -0.40211987
H    1.70583928   4.59212828   0.31484988
H    1.09142959   3.29495883   1.35927951
H    4.80859804   2.89648890   1.32977939
H    3.56095862   3.23466873   2.31838918

