%chk=mol_6787.chk
# wB97XD/Def2SVP opt freq pop=full gfinput

C 6 H 9 N 1

1 2
C    0.88032967  -0.06062998  -0.09755997
C    2.21534920  -0.03213999   0.02026999
C    2.99206901   1.25074959   0.22106992
N    4.31696844   1.22945964  -0.40511987
C    5.10230827   0.07718997   0.03268999
C    4.33370829  -1.20936954   0.00223000
C    2.99391890  -1.25511956  -0.02629999
H    0.29333988   0.85318965  -0.05738998
H    0.33348989  -0.98853964  -0.23373993
H    2.43613887   2.09145927  -0.21123992
H    3.09213901   1.45175946   1.29563951
H    4.81399822   2.08079934  -0.15310994
H    5.49519825   0.23719992   1.04386961
H    5.96429825  -0.01421999  -0.63792974
H    4.90364838  -2.13052917  -0.00818000
H    2.48090911  -2.20991921  -0.07953997

