%chk=mol_2614.chk
# wB97XD/Def2SVP opt freq pop=full gfinput

C 6 H 8 O 1

1 2
C    2.29296923  -0.56299978  -1.39914942
C    2.46868896  -0.00781000   0.00553000
C    3.02009892   1.37633944   0.00355000
C    2.30932903   2.55956912  -0.01162999
O    3.14690876   3.62732887  -0.00790000
C    4.41109800   3.13600874   0.01078000
C    4.39127874   1.76141930   0.01912999
H    1.88783932  -1.57905936  -1.35793948
H    3.24874878  -0.59926975  -1.93351936
H    1.60408938   0.05447998  -1.98597920
H    3.13576889  -0.66651976   0.57402980
H    1.50198948  -0.01827999   0.52253979
H    1.25479960   2.79703903  -0.02620999
H    5.19998837   3.87454844   0.01607999
H    5.25684786   1.11408961   0.03368999

