%chk=mol_5612.chk
# wB97XD/Def2SVP opt freq pop=full gfinput

C 5 H 11 N 1 O 1

1 2
N    1.92293930  -0.28635991  -1.34739947
C    2.41333914   0.13725995  -0.03531998
C    3.15772891   1.47714949  -0.07439998
C    2.30336905   2.65450907  -0.51769984
C    3.01613879   3.80969858   0.13969995
C    3.42715859   3.20942879   1.46673942
O    3.64415884   1.80825937   1.24353957
H    1.45398951  -1.18661952  -1.24846947
H    2.71676898  -0.45147982  -1.96592927
H    3.07655883  -0.63497978   0.37243986
H    1.56911945   0.20517991   0.66097975
H    4.04074860   1.39132953  -0.72101974
H    1.28618944   2.57513905  -0.11674995
H    2.23875904   2.75013900  -1.60479939
H    3.90648866   4.07719851  -0.44272983
H    2.39733911   4.70461845   0.24904992
H    4.33653831   3.66314864   1.86896932
H    2.62917900   3.30765891   2.20942926

