%chk=mol_6668.chk
# wB97XD/Def2SVP opt pop=full gfinput

C 4 H 8 N 2 S 1

1 2
N    3.464076   3.120354   1.058077
C    4.549950   5.420056   0.986361
S    2.886954   7.999268   1.624031
N    7.035734   5.560066   0.437018
C    8.748203   3.486356  -0.025379
C   11.343912   4.535362  -0.384503
C   12.638905   4.441915  -2.558311
H    4.258214   1.605965   0.217810
H    1.573178   3.048147   1.347942
H    7.744381   7.339375   0.398694
H    8.085874   2.449784  -1.689888
H    8.705042   2.203515   1.597461
H   12.226566   5.395697   1.261317
H   11.849263   3.593579  -4.251903
H   14.529915   5.229061  -2.688986

