%chk=mol_2991.chk
# wB97XD/Def2SVP opt pop=full gfinput

C 5 H 8 O 2

1 2
C    2.077187  -1.042278   0.882804
C    4.364738   0.021562  -0.516065
C    5.760547  -2.063033  -1.930714
C    3.551476   2.060879  -2.361062
O    1.460456   2.217802  -3.341830
C    5.505094   4.010849  -3.099567
O    7.616938   4.024323  -2.175112
H    1.053447   0.465326   1.866993
H    2.662057  -2.441942   2.291255
H    0.746650  -1.956037  -0.414795
H    5.617891   0.873677   0.893859
H    4.553106  -2.930871  -3.372330
H    6.381719  -3.549680  -0.631169
H    7.435713  -1.321278  -2.894475
H    4.844294   5.385587  -4.516786

