%chk=mol_4153.chk
# wB97XD/Def2SVP opt pop=full gfinput

C 4 H 8 N 2 O 1

1 2
C    2.000974  -0.132526  -0.020333
C    4.877459   0.066405   0.015042
N    6.030097  -1.998820  -1.446132
N    6.463279  -1.330972  -3.887885
C    6.379073   1.112652  -3.942668
C    5.851764   2.364104  -1.450062
O    8.170344   3.284004  -0.456501
H    1.159366   1.462024   0.993769
H    1.375305  -1.875062   0.903270
H    1.244215  -0.125497  -1.946494
H    5.569892   0.034620   1.965674
H    5.071798  -3.669262  -1.304270
H    6.719469   2.247036  -5.648259
H    4.494771   3.906877  -1.649126
H    9.262511   1.804254  -0.280227

