%chk=mol_3835.chk
# wB97XD/Def2SVP opt freq pop=full gfinput

C 5 H 9 N 1 O 1

1 2
C    0.84105968   0.04646998   0.04830998
C    0.42346984  -0.15440993   1.47102940
C   -0.62335980   0.71918970   2.11148930
O   -0.93178964  -0.60007977   1.63606930
N    2.03613925   0.89856964   0.04366998
C    3.26997876   0.18591993  -0.28240991
C    2.59905887   1.07614958  -1.29300952
H    1.00113964  -0.93396968  -0.41754985
H    0.04139999   0.54282975  -0.51504982
H    1.18092966  -0.61460978   2.09019923
H   -1.01358962   1.55987942   1.55218935
H   -0.57940978   0.86843967   3.18238878
H    3.23772883  -0.88617969  -0.43324983
H    4.16779852   0.55311978   0.20018992
H    3.04116869   2.04514933  -1.49090946
H    2.09177923   0.61901975  -2.13379908

