%chk=mol_5016.chk
# wB97XD/Def2SVP opt freq pop=full gfinput

C 5 H 11 N 1 O 1

1 2
C    2.16533899  -0.77592975  -1.34954941
N    1.82077932   0.33075988  -0.46548983
C    3.00643897   1.05774963   0.06386998
C    3.77015853   0.33313987   1.14944947
C    3.78056860   1.95258927  -0.87705970
C    2.90296888   2.57443905   0.16592993
O    3.59776855   3.21593881   1.24661946
H    2.72925901  -0.43379983  -2.22267914
H    1.24752951  -1.25217950  -1.70799935
H    2.74587893  -1.54212940  -0.82792974
H    1.19459951   0.96489966  -0.95941967
H    4.64094830   0.89976966   1.49600947
H    4.14104843  -0.63149971   0.78873968
H    3.12074876   0.15159994   2.01241922
H    3.46267891   2.02564931  -1.90993917
H    4.85483837   2.02045918  -0.74903971
H    1.97684932   3.03481889  -0.16311994
H    3.75297856   4.15585852   1.05254960

