%chk=mol_3806.chk
# wB97XD/Def2SVP opt pop=full gfinput

C 5 H 7 N 1 O 1

1 2
C   -1.937971   0.000454  -2.396173
C   -1.025195   1.889197  -0.250351
N   -2.473935   0.000435   1.459643
C   -1.024307  -1.889669  -0.250294
C    1.733956  -1.455921   0.446637
O    3.265995   0.000491  -1.218231
C    1.735506   1.455202   0.446599
H   -3.962812   0.000435  -2.834287
H   -0.850358   0.000151  -4.151823
H   -1.752211   3.817001  -0.268530
H   -1.911647  -0.000094   3.299972
H   -1.752721  -3.816831  -0.268851
H    2.436632  -2.447460   2.081685
H    2.436821   2.447195   2.082062

