%chk=mol_2648.chk
# wB97XD/Def2SVP opt freq pop=full gfinput

C 5 H 6 O 2

1 2
C    1.20517957  -0.17443992  -0.59737974
C    2.49837899   0.00911000  -0.30474991
C    3.15652895   1.28331959  -0.26020989
C    4.42053843   1.53929937   0.01904999
O    4.73482800   2.87568903  -0.02403999
C    3.45147848   3.43513870  -0.38000986
O    2.42868924   2.42957902  -0.53538978
H    0.77630967  -1.17084956  -0.61171979
H    0.54599983   0.65691978  -0.82832968
H    3.11083889  -0.86192966  -0.08145997
H    5.22447777   0.87110966   0.27013987
H    3.55521870   3.98203874  -1.32401943
H    3.14232898   4.13487864   0.40471986

