%chk=mol_3808.chk
# wB97XD/Def2SVP opt freq pop=full gfinput

C 4 H 6 N 2 O 1

1 2
C    2.04360914  -0.12907995  -0.11698996
C    0.78695971  -0.86590970   0.10904996
N   -0.43213984  -1.28422952  -0.56970978
C   -1.47591949  -0.43851984  -0.20383993
N   -1.42810953   0.73017973   0.37694985
O   -0.09998996   1.21096957   0.69975978
C    0.81645966   0.66142976  -0.26116991
H    2.60819912  -0.36316985  -1.01241958
H    2.67623901   0.08435997   0.73726976
H    0.70885968  -1.15765965   1.15929949
H   -0.66370976  -2.27094913  -0.62997973
H   -2.45879912  -0.86174965  -0.46937984
H    0.64589977   0.98062962  -1.28883958

