%chk=mol_0070.chk
# wB97XD/Def2SVP opt freq pop=full gfinput

C 4 H 8 O 1

1 2
C    0.95777965  -1.09371960  -0.01714999
C    2.06316924  -0.05428998   0.02018999
O    1.45703948   1.23494959   0.11901996
C    2.28987908   2.31436920   0.16941994
C    3.62628865   2.35419917   0.14171995
H    1.37333953  -2.10222936  -0.09545997
H    0.29187989  -0.91827965  -0.86865968
H    0.34190986  -1.03429961   0.88653964
H    2.65593886  -0.12309995  -0.89875966
H    2.70314908  -0.23844990   0.89080966
H    1.69406939   3.21938872   0.24129991
H    4.24324846   1.46652949   0.07084998
H    4.14066839   3.30815864   0.19152993

