%chk=mol_0527.chk
# wB97XD/Def2SVP opt freq pop=full gfinput

C 4 H 6 N 2

1 2
N    1.01939964  -0.02964999  -0.02556999
C    2.35634899   0.05843998  -0.00932000
C    3.19085884   1.15101957  -0.00057000
C    4.52302837   0.66695970   0.01340000
C    4.45918846  -0.70901972   0.01251999
N    3.13501883  -1.06701958  -0.00147000
H    0.43658984   0.80269969   0.00691000
H    0.50464982  -0.90284961   0.01852999
H    2.88048911   2.18667936  -0.00486000
H    5.42864799   1.25888944   0.02193999
H    5.23574781  -1.46175945   0.01936999
H    2.78350902  -2.01270914  -0.00815000

