%chk=mol_4355.chk
# wB97XD/Def2SVP opt pop=full gfinput

C 5 H 11 N 1 O 1

1 2
C    2.101130  -1.406353   0.046487
C    4.730684  -0.391381  -0.179543
C    5.503903   2.030832   0.016970
C    3.775786   4.262882   0.397220
N    4.243871   5.412062   2.863143
C    8.276812   2.680709  -0.251749
O    9.235904   3.635625   2.064866
H    2.111826  -3.075340   1.268082
H    1.404218  -1.976559  -1.813173
H    0.769742  -0.062059   0.869992
H    6.154195  -1.846036  -0.505086
H    1.777287   3.767982   0.242905
H    4.140144   5.662640  -1.085307
H    3.655997   4.167583   4.219021
H    3.089173   6.945311   3.049961
H    8.541656   4.113329  -1.720558
H    9.417904   1.037838  -0.776640
H    7.864832   4.647536   2.796568

