%chk=mol_5131.chk
# wB97XD/Def2SVP opt freq pop=full gfinput

C 5 H 11 N 1 O 1

1 2
C    1.10837960   0.12366996   1.04715955
N    2.56462908   0.22348991   1.07876968
C    3.05615878   1.47388947   0.46097982
C    2.66321898   2.72002912   1.29447961
O    2.91098881   2.50001907   2.68700910
C    4.56078815   1.36479950   0.38712987
C    5.27782774   1.40421939  -0.74376971
H    0.80945969  -0.87334967   1.38702953
H    0.71165979   0.26619989   0.03726999
H    0.64176977   0.84510970   1.72467935
H    2.94640875  -0.55435979   0.53656983
H    2.65224910   1.58050942  -0.55421984
H    1.59625947   2.93882871   1.18003953
H    3.22227883   3.60812855   0.98118961
H    2.82609892   1.53049934   2.80022907
H    5.08550787   1.25890958   1.33629954
H    4.81203842   1.51630938  -1.71725929
H    6.36096764   1.32724941  -0.71204972

