%chk=mol_0342.chk
# wB97XD/Def2SVP opt freq pop=full gfinput

C 5 H 7 N 1

1 2
C    0.81585968   0.01879999   0.08048996
C    2.30198908   0.00172000   0.24360991
C    3.12021875   0.94522965  -0.25068992
C    4.61631823   0.93964964  -0.09102997
C    5.28197813   0.93207961  -1.40217948
N    5.82010794   0.93452966  -2.43220925
H    0.48886982  -0.88307971  -0.44586983
H    0.47125983   0.88921964  -0.48665982
H    0.33389986   0.03844998   1.06268954
H    2.71029902  -0.84183967   0.79695970
H    2.69720888   1.78529930  -0.80066967
H    4.94559813   0.07334997   0.49408981
H    4.91234827   1.83462930   0.46777984

