%chk=mol_4766.chk
# wB97XD/Def2SVP opt pop=full gfinput

C 4 H 10 N 2 O 1

1 2
C    3.045010  -0.820954  -2.006473
C    4.872375  -0.196097   0.110247
N    6.787707   1.571081  -0.725882
C    8.957321   1.874967   0.664900
O    9.499125   0.642790   2.542268
N   10.448938   3.737481  -0.353511
C   12.925557   4.192036   0.683646
H    1.598576  -2.142458  -1.346827
H    4.037003  -1.685768  -3.602725
H    2.101262   0.884184  -2.700192
H    5.786833  -1.922570   0.796784
H    3.869970   0.668850   1.702303
H    6.166327   3.182091  -1.536442
H   10.247134   3.964097  -2.235830
H   12.815896   4.356764   2.740859
H   13.666046   5.940751  -0.126517
H   14.160133   2.610770   0.186119

