%chk=mol_6309.chk
# wB97XD/Def2SVP opt freq pop=full gfinput

C 4 H 7 N 1 O 2

1 2
O    4.21226835   0.36537987   2.03990936
C    4.13047838   1.49988949   1.58668935
N    4.75558853   1.90668929   0.44449985
O    4.21840858   3.08048892  -0.11919995
C    5.28799820   4.04504871  -0.17411993
C    6.00576782   4.15717840  -1.49108934
C    5.03991842   5.22694826  -1.06922960
H    3.56182861   2.30222917   2.08460927
H    5.03342819   1.17939961  -0.20334993
H    5.85220814   4.23877859   0.73373973
H    5.70772791   3.49639869  -2.29563928
H    7.06367779   4.38928795  -1.47093952
H    5.44219780   6.18479776  -0.76374972
H    4.08736849   5.28575802  -1.58298945

