%chk=mol_4150.chk
# wB97XD/Def2SVP opt pop=full gfinput

C 4 H 8 N 2 O 1

1 2
C    1.998253  -0.040043   0.107469
C    4.816534   0.016478   0.049303
N    6.198415  -2.007305  -0.068673
N    8.627923  -1.217248   0.075551
C    8.901158   1.476934  -0.440420
C    6.254634   2.481891   0.123512
O    5.412875   4.242889  -1.701925
H    1.316024  -1.989088   0.074965
H    1.253569   0.964441  -1.536026
H    1.331898   0.885885   1.829349
H    9.847873  -2.330353  -0.921506
H    9.434855   1.795656  -2.415410
H   10.331076   2.342448   0.775298
H    6.103929   3.295475   2.019116
H    5.606836   3.464983  -3.358365

