%chk=mol_2410.chk
# wB97XD/Def2SVP opt freq pop=full gfinput

C 7 H 14

1 2
C    0.84442967  -0.15865993   0.13200995
C    2.33051920   0.01444999   0.18163994
C    3.04494905   1.14319956  -0.01147000
C    2.40816903   2.48971891  -0.26697990
C    4.57698822   1.18354952   0.03461999
C    5.24729824   0.03072999   0.79342973
C    5.15592813   1.26489949  -1.38175941
H    0.60202980  -1.03198957  -0.48278981
H    0.31651989   0.69232976  -0.30217990
H    0.45632982  -0.33553985   1.13951957
H    2.85469890  -0.91882968   0.37682986
H    1.33546948   2.50859928  -0.06230998
H    2.55829906   2.79208899  -1.30786955
H    2.85559893   3.25052881   0.38195986
H    4.86496830   2.09849930   0.57024980
H    5.13412809  -0.92520964   0.27042991
H    4.83273792  -0.07270997   1.80233932
H    6.32226753   0.21849991   0.89851964
H    4.89003801   0.38045987  -1.97187924
H    6.24905777   1.33249950  -1.35102952
H    4.78989840   2.14829922  -1.91535926

