%chk=mol_4469.chk
# wB97XD/Def2SVP opt pop=full gfinput

C 5 H 11 N 1 O 1

1 2
C    1.243648  -1.010739   0.317342
C    4.069752  -1.143190  -0.297821
C    4.623744  -3.563948  -1.778100
N    4.754816   1.147007  -1.714586
C    7.494692   1.400816  -2.069590
C    8.012571   3.867268  -3.427812
O    9.317635   5.570818  -2.543477
H    0.803096   0.669681   1.443940
H    0.654639  -2.665062   1.413761
H    0.094581  -0.947735  -1.404426
H    5.104641  -1.192020   1.498742
H    3.737973  -3.524509  -3.649760
H    3.896029  -5.219405  -0.770196
H    6.654935  -3.852736  -2.031626
H    4.136195   2.683600  -0.716225
H    8.259274  -0.104407  -3.262102
H    8.492561   1.419071  -0.257721
H    7.163895   4.044807  -5.326250

