%chk=mol_4601.chk
# wB97XD/Def2SVP opt pop=full gfinput

C 4 H 7 N 1 O 2

1 2
C    2.079455  -0.045845   0.105522
C    4.787168   0.024888  -0.864304
C    5.147841  -2.048066  -2.780297
O    5.651453  -1.693913  -5.015012
C    5.334130   2.610506  -1.908038
N    6.645222   4.216697  -0.610703
O    6.799556   6.480268  -1.969000
H    1.775095   1.398284   1.556870
H    1.631193  -1.891370   0.928385
H    0.724748   0.305569  -1.421546
H    6.091154  -0.349656   0.701202
H    4.931883  -3.989306  -2.046196
H    4.498682   3.107919  -3.757210
H    7.839113   7.535642  -0.872335

