%chk=mol_1368.chk
# wB97XD/Def2SVP opt freq pop=full gfinput

C 6 H 13 N 1

1 2
C    3.07329893  -0.65481973  -1.09004962
C    2.53063917  -0.00560000   0.17602994
C    3.11849880   1.39029944   0.43233985
N    2.49503922   1.98298919   1.61554945
C    4.59995842   1.34872949   0.70097971
C    5.58103800   1.75137925  -0.37452987
C    5.39560795   2.62708879   0.83013970
H    2.57269907  -1.61299944  -1.26399958
H    4.14681864  -0.85126966  -1.01032960
H    2.90051889  -0.01867999  -1.96377933
H    2.73202896  -0.67027974   1.02584958
H    1.43976951   0.06861997   0.08210997
H    2.90423894   2.03920937  -0.42539984
H    2.65699887   1.38225937   2.42171907
H    1.48564935   2.01503921   1.48509943
H    4.88146830   0.53480983   1.36104941
H    5.20105791   2.11739922  -1.32188952
H    6.50418758   1.18924963  -0.45589983
H    6.18463755   2.65380907   1.57245946
H    4.87156820   3.56839848   0.70841974

