%chk=mol_0060.chk
# wB97XD/Def2SVP opt freq pop=full gfinput

C 4 H 8 O 1

1 2
C    0.97069961  -0.10275996  -0.06661997
C    2.47949910  -0.01834999   0.04868998
C    2.95354867   1.41753948   0.00706000
C    2.96395898   2.10498929  -1.33272946
O    3.28124881   2.01314926   1.03383958
H    0.63847977  -1.14136958   0.02632999
H    0.62458974   0.27880991  -1.03252959
H    0.48342982   0.48598981   0.71768969
H    2.96656871  -0.57763976  -0.75681973
H    2.80985904  -0.46262982   0.99410957
H    3.48255873   1.48047948  -2.06473923
H    3.49721861   3.05670881  -1.25216949
H    1.93918920   2.29646897  -1.65907943

