%chk=mol_6724.chk
# wB97XD/Def2SVP opt freq pop=full gfinput

C 4 H 8 N 2 S 1

1 2
S    1.44688940   0.06170997   1.20167959
C    2.77093887   0.01576999   0.20414992
N    3.31358862  -1.16319954  -0.19548993
C    4.35959816  -1.26992953  -1.18875957
C    5.28092813  -0.06522997  -1.14151967
C    4.42217875   1.18323958  -1.21934962
N    3.37137890   1.15445960  -0.22587991
H    2.81729889  -1.99769926   0.09358996
H    4.91213799  -2.19451928  -0.99784964
H    3.87383842  -1.35550952  -2.16729927
H    5.84233761  -0.06777998  -0.19950992
H    6.00430775  -0.09388996  -1.96209919
H    5.02140808   2.08301926  -1.04973960
H    3.94235849   1.27030945  -2.20070910
H    2.91790891   2.02021933   0.04108999

