%chk=mol_0552.chk
# wB97XD/Def2SVP opt freq pop=full gfinput

C 5 H 9 N 1

1 2
N    0.82179970   0.09190997   0.09823997
C    2.27991915   0.18893993   0.15440993
C    2.83382893   1.60336936   0.15223995
C    2.05755925   2.70404887   0.19135992
C    4.28324842   1.78489935   0.10954995
C    5.21148777   0.81823969   0.09350996
H    0.55936974  -0.89103967   0.13142994
H    0.51494980   0.43310982  -0.81162971
H    2.68058896  -0.36143985  -0.70521975
H    2.61576915  -0.32182989   1.06390965
H    0.97538966   2.63408899   0.24411991
H    2.47053909   3.70765877   0.19289993
H    4.63988829   2.81457877   0.09607996
H    4.97186804  -0.23785990   0.11181996
H    6.26580763   1.07898951   0.06657998

