%chk=mol_2031.chk
# wB97XD/Def2SVP opt freq pop=full gfinput

C 7 H 10

1 2
C    0.89902967   0.20589992  -0.12137996
C    2.09364915   0.13522996  -0.21924992
C    3.55613875   0.04373999  -0.33907989
C    4.24757862   1.19221950   0.39639986
C    5.74066782   1.11315966   0.25950989
C    6.62664747   1.69706941   1.32855952
C    6.54306793   0.20554993   1.15459955
H   -0.16133995   0.26776990  -0.03422999
H    3.84060836   0.05562998  -1.39916956
H    3.89878845  -0.91616964   0.06525998
H    3.95582843   1.18338954   1.45461941
H    3.90997863   2.15356898  -0.01116000
H    6.06384754   1.22678959  -0.77013975
H    6.16702747   2.13054919   2.20965910
H    7.53855705   2.19401908   1.01713967
H    7.39812708  -0.30414990   0.72464973
H    6.02649784  -0.36499986   1.91833937

