%chk=mol_0921.chk
# wB97XD/Def2SVP opt pop=full gfinput

C 4 H 8 O 2

1 2
O    5.212470  -1.404331   2.241121
C    4.505315  -0.127878  -0.039835
C    5.582308   2.572295  -0.031521
O    4.905408   3.776221   2.285756
C    8.414931   2.615816  -0.212481
C    9.724247   3.730338  -2.071178
H    4.543979  -3.113210   2.114963
H    2.438011  -0.056711  -0.074852
H    5.181213  -1.212562  -1.665680
H    4.735068   3.654466  -1.580643
H    5.158083   2.477242   3.575041
H    9.441052   1.671312   1.297713
H    8.792083   4.718400  -3.608054
H   11.775545   3.698402  -2.068910

