%chk=mol_2445.chk
# wB97XD/Def2SVP opt freq pop=full gfinput

C 5 H 10 O 2

1 2
C    1.05180967  -0.06132998   0.00891000
C    2.54210901  -0.03970999  -0.01769999
C    3.32463884  -0.70037973  -1.12507963
O    2.56821895  -1.30421960  -2.18243909
C    3.27560878   0.80490971  -1.03179967
C    4.49080801   1.57006943  -0.63344973
O    5.26962805   1.83158934  -1.79076934
H    0.67950976   0.71610975   0.68391973
H    0.69567972  -1.02880967   0.37614986
H    0.61179978   0.11402996  -0.97790962
H    2.95101881  -0.12060995   0.98391962
H    4.24081850  -1.20596957  -0.83365971
H    2.09520912  -0.64904976  -2.72322893
H    2.68625903   1.35660946  -1.75496936
H    5.11015844   1.03062963   0.09074997
H    4.20484829   2.52897906  -0.19097993
H    5.50141811   0.96980965  -2.17766929

