%chk=mol_3815.chk
# wB97XD/Def2SVP opt freq pop=full gfinput

C 4 H 5 N 1 O 2

1 2
C    0.83262968  -0.06761998   0.05943998
C    2.25109911   0.40258986  -0.14749993
C    1.11325955   1.35107946  -0.29039988
O    0.92139965   2.36268902   0.67913973
C    0.47832984   3.38854861  -0.06560998
N    0.35923985   3.19090867  -1.33466947
O    0.76305968   1.84065926  -1.58931947
H    0.51143980  -0.28727990   1.06964958
H    0.38881987  -0.69664973  -0.70239973
H    2.76438880   0.09208997  -1.04908967
H    2.88699889   0.50117981   0.72304976
H    0.25942990   4.30704832   0.49106982

