%chk=mol_6534.chk
# wB97XD/Def2SVP opt freq pop=full gfinput

C 4 H 6 N 2 S 1

1 2
C    0.91809964  -0.10062996   0.02698999
C    2.43235898   0.02685999  -0.02159999
C    2.86193895   1.45385945  -0.03202999
N    3.04075885   2.21388912   1.02932966
C    3.43672872   3.46711850   0.59269977
N    3.57260871   3.71707869  -0.70847976
S    3.18414879   2.29634929  -1.49724948
H    0.62693977  -1.15485966   0.05510998
H    0.45197982   0.35765988  -0.85132968
H    0.50837982   0.38904986   0.91799968
H    2.81795883  -0.50241983  -0.90156960
H    2.86436892  -0.46800983   0.85605967
H    3.64054871   4.25813866   1.30383956

