%chk=mol_6164.chk
# wB97XD/Def2SVP opt pop=full gfinput

C 5 H 7 N 1 O 1

1 2
O    1.964843   0.729850  -1.491353
C    3.753412   0.600064  -0.011357
C    6.058443   2.338574  -0.065007
N    7.168090   2.486313   2.519269
C    6.595088   5.044246   3.486072
C    5.670860   6.497993   1.275357
C    5.368504   4.983151  -0.714241
H    3.859236  -0.975193   1.352836
H    7.448752   1.540902  -1.371733
H    9.082401   2.381811   2.316407
H    8.294159   5.903712   4.293873
H    5.140887   4.939196   4.953124
H    5.240418   8.493582   1.314758
H    4.646572   5.550749  -2.539244

