%chk=mol_0840.chk
# wB97XD/Def2SVP opt pop=full gfinput

C 4 H 10 O 2

1 2
C    1.983003  -0.304870  -0.036339
O    4.662578  -0.107336  -0.013512
C    5.462650   2.469475  -0.014116
C    8.340722   2.578890   0.012416
O    9.137959   5.155362   0.051155
C   11.816741   5.353065   0.071583
H    1.478408  -2.305995  -0.013077
H    1.211522   0.552348  -1.754460
H    1.175126   0.601424   1.636616
H    4.707119   3.446841   1.651696
H    4.737430   3.438035  -1.696653
H    9.093721   1.626733  -1.666965
H    9.065281   1.586047   1.680023
H   12.321241   7.356099   0.127897
H   12.616284   4.518883  -1.644043
H   12.600732   4.427685   1.746504

