%chk=mol_3366.chk
# wB97XD/Def2SVP opt pop=full gfinput

C 6 H 8 O 1

1 2
C    1.942865   0.148551  -1.139202
O    4.464629  -0.118788  -0.231832
C    5.757958   2.123788  -0.248971
C    8.268572   2.207710   0.000000
C    9.597050   4.508698   0.000000
C   10.721588   6.456457   0.000000
C   12.085970   8.819635   0.000000
H    1.060628  -1.720444  -1.142434
H    1.931017   0.877645  -3.076436
H    0.843007   1.383790   0.105050
H    4.607152   3.804132  -0.444558
H    9.329370   0.464740   0.208248
H   10.800805  10.421368  -0.243756
H   13.469779   8.880579  -1.535554
H   13.104174   9.091681   1.779272

