%chk=mol_5388.chk
# wB97XD/Def2SVP opt freq pop=full gfinput

C 4 H 12 N 2 O 1

1 2
C    3.45863867  -1.31554949  -0.70906973
O    4.26313829  -0.32581988  -0.08149997
C    3.75363874   0.99249959  -0.31413987
C    4.65223789   2.01206923   0.41213983
N    6.06879807   1.89278924  -0.01426999
C    4.13433838   3.45155859   0.19391993
N    5.07307816   4.44679832   0.72562969
H    3.89056849  -2.29693913  -0.49515983
H    3.44618869  -1.16744959  -1.79320931
H    2.43899918  -1.28843951  -0.31268987
H    2.72943902   1.05923963   0.07180998
H    3.74091864   1.18972957  -1.39285946
H    4.63792849   1.78586936   1.48577940
H    6.12277746   2.06275916  -1.01857960
H    6.31484747   0.90306967   0.09098997
H    3.15668893   3.58103848   0.67048979
H    4.00608873   3.64646864  -0.87738967
H    6.00504780   4.14144850   0.41858983
H    5.12324810   4.33213806   1.73840940

