%chk=mol_5493.chk
# wB97XD/Def2SVP opt freq pop=full gfinput

C 7 H 14

1 2
C    2.99547887  -0.85049969  -1.06956959
C    2.52471900  -0.00382000   0.10477996
C    3.10403895   1.42317951   0.10481996
C    2.49520898   2.21968913   1.26383948
C    4.61009836   1.41146946   0.22483991
C    5.47064781   1.54130936  -1.00747967
C    5.40762806   2.66837907  -0.01973999
H    2.48331904  -1.81885934  -1.06239963
H    4.07095861  -1.04743958  -1.01567960
H    2.77863908  -0.35910988  -2.02339911
H    2.78559875  -0.51834977   1.03741956
H    1.42995954   0.05257998   0.06867997
H    2.81129909   1.91837931  -0.83047974
H    2.76781917   1.78380930   2.23132920
H    1.40269947   2.24098921   1.19310951
H    2.85018873   3.25572872   1.25684953
H    4.95802832   0.76048970   1.02075958
H    4.99062777   1.68705928  -1.96952927
H    6.38069773   0.95453966  -1.05389965
H    6.27523756   2.84467888   0.60649979
H    4.88501835   3.57162857  -0.31249988

