%chk=mol_3550.chk
# wB97XD/Def2SVP opt freq pop=full gfinput

C 5 H 6 O 2

1 2
O    1.41157949   0.30355990   0.82852972
C    2.40734911  -0.00901000   0.19690993
C    2.88636875  -1.41398942  -0.09131997
C    4.06925821  -1.25716949  -1.06143963
C    4.43681812   0.19255993  -1.05226958
O    3.52261853   1.05133963  -1.73533940
C    3.39109874   0.96508962  -0.30962989
H    2.08515930  -2.01496911  -0.52787983
H    3.21796870  -1.86446929   0.84991968
H    4.90832806  -1.88575935  -0.74704975
H    3.78015852  -1.56926942  -2.07114935
H    5.48299789   0.44532982  -0.99303967
H    3.67126870   1.80719924   0.30405989

