%chk=mol_2764.chk
# wB97XD/Def2SVP opt freq pop=full gfinput

C 6 H 10 O 1

1 2
C    1.00200963   1.74026930  -1.38878953
C    2.22259903   1.41580951  -0.58892983
C    3.47652888   1.61615944  -1.02203965
C    4.70872831   1.28195953  -0.22046991
C    5.58668804   0.27819988  -0.95992965
C    5.44493818   2.58348918   0.05243998
O    6.53685713   2.88402891  -0.42162982
H    0.40829983   0.83456969  -1.54546940
H    1.24898958   2.16036916  -2.36892915
H    0.38633984   2.46713924  -0.85056973
H    2.04646921   0.98427963   0.39494982
H    3.64157867   2.04277921  -2.01215935
H    4.44156837   0.86099970   0.75684971
H    5.90880775   0.66207975  -1.93443930
H    5.05062819  -0.66212970  -1.12711954
H    6.48918724   0.05420998  -0.38125986
H    4.92562819   3.27939868   0.73550975

