%chk=mol_5966.chk
# wB97XD/Def2SVP opt freq pop=full gfinput

C 5 H 7 N 1 O 1

1 2
O    0.93402964  -0.02902999   0.04625998
C    2.37425900  -0.01959999   0.02443999
C    3.04450893   1.04159963   0.93068969
C    4.13266850  -0.00304000   1.24120951
C    3.09024882  -1.09417963   0.89542967
C    3.59294868  -2.23545909   0.16819994
N    3.99050832  -3.14778876  -0.42790985
H    0.66870975  -0.71141970  -0.59604979
H    2.73920894   0.03627999  -1.01043963
H    2.44334912   1.33175945   1.80011940
H    3.39497876   1.94439924   0.42360985
H    4.99212837   0.04932998   0.56154978
H    4.49847841  -0.00568000   2.27161932
H    2.49107909  -1.38811946   1.76855934

