%chk=mol_0236.chk
# wB97XD/Def2SVP opt freq pop=full gfinput

C 4 H 4 N 2

1 2
C   -0.63559973  -1.24368954  -0.02203999
C   -1.39410949  -0.08263997  -0.02495999
C   -0.73030972   1.12612951   0.05942998
N    0.61282974   1.21348953   0.14344995
N    1.35739946   0.07382997   0.14631994
C    0.73780972  -1.12146962   0.06507997
H   -1.10225952  -2.21988916  -0.08601997
H   -2.47517920  -0.11815996  -0.09129997
H   -1.25920963   2.07183933   0.06239998
H    1.39170945  -1.98563921   0.07262997

