%chk=mol_0746.chk
# wB97XD/Def2SVP opt freq pop=full gfinput

C 5 H 6 O 1

1 2
C    0.96326959  -0.11118996   0.01604999
C    2.47010899   0.05845997   0.01749999
C    2.84208894   1.51932943   0.00799000
O    2.96342874   2.18082929  -1.01557970
C    3.01283884   2.15597916   1.29707944
C    3.15279889   2.68764901   2.36540890
H    0.69847977  -1.17272961  -0.00288000
H    0.51475984   0.37025985  -0.85936970
H    0.51453984   0.33795989   0.90821964
H    2.90709877  -0.41149983  -0.87050968
H    2.91327906  -0.43170983   0.89123970
H    3.27828884   3.16988873   3.30719876

