%chk=mol_6901.chk
# wB97XD/Def2SVP opt freq pop=full gfinput

C 6 H 13 N 1

1 2
C    3.28085876  -0.51633984   0.94363964
C    2.38062906   0.66295975   0.60291976
C    3.10993886   1.78051925  -0.13111995
C    3.11880875   1.72037935  -1.64378941
C    2.26100922   2.73279905  -0.94565964
N    4.32796812   2.33321905   0.50062984
C    4.06391859   3.14685869   1.67670929
H    2.68682909  -1.33899951   1.35211945
H    4.02579832  -0.24100992   1.69556928
H    3.81011844  -0.87959963   0.05810998
H    1.93184924   1.05910957   1.52230942
H    1.54798949   0.29343989  -0.00935000
H    2.62477899   0.89303964  -2.13876915
H    3.99530840   2.08237934  -2.16802931
H    2.56207895   3.77237868  -1.00375962
H    1.18721962   2.58866882  -0.95979959
H    4.98662806   1.59287941   0.73205972
H    3.45307851   4.02032852   1.42524946
H    5.01090813   3.51595855   2.08331919
H    3.56241846   2.57574916   2.46400905

