%chk=mol_3185.chk
# wB97XD/Def2SVP opt pop=full gfinput

C 6 H 8 O 1

1 2
C    1.893430  -0.069542   0.354815
C    4.762110   0.000000   0.000000
O    5.873836  -1.318613   2.074522
C    5.492224  -1.470679  -2.332357
C    6.445951  -0.614709  -4.521132
C    5.672996   2.572238   0.000000
C    6.423746   4.692322   0.000000
H    0.899113   0.881028  -1.194061
H    1.341951   0.854005   2.127189
H    1.199069  -2.018549   0.476872
H    5.789119  -0.189993   3.519785
H    5.206819  -3.503401  -2.165248
H    6.806794   1.374814  -4.861018
H    6.900316  -1.919924  -6.037940
H    7.107883   6.586357  -0.008334

