%chk=mol_4580.chk
# wB97XD/Def2SVP opt freq pop=full gfinput

C 5 H 13 N 1 O 1

1 2
C    0.88353968  -0.12462995  -0.02277999
C    2.40691900  -0.11464996  -0.03165999
C    2.97376895   1.30587947   0.06802998
O    2.61796904   1.86581933   1.33604944
C    4.51159811   1.35187948  -0.07565998
N    5.16927814   0.72799975   1.08790958
C    6.61926794   0.84385973   0.98120958
H    0.51337981  -1.15068960  -0.11657995
H    0.48284981   0.45790982  -0.85846967
H    0.48793980   0.29153988   0.90904969
H    2.76012897  -0.59250975  -0.95249969
H    2.74763894  -0.72355968   0.81350970
H    2.52698898   1.93689930  -0.70867974
H    3.36064863   1.63203931   1.93089926
H    4.81455803   2.40547919  -0.12013995
H    4.81808853   0.86504966  -1.00885963
H    4.92534828  -0.26253989   1.12058961
H    6.93340731   1.89230931   0.96938968
H    6.99587727   0.34506989   0.08222997
H    7.08618736   0.36954987   1.85002935

