%chk=mol_5459.chk
# wB97XD/Def2SVP opt pop=full gfinput

C 6 H 11 N 1

1 2
C    1.396016   0.658872  -1.142850
C    4.028613   0.298652  -0.086757
C    5.687150  -1.672049  -1.356313
C    6.167140   1.068376  -1.847585
N    4.518222   0.880159   2.628363
C    2.335154   0.942047   4.299807
C    4.001098  -1.344691   4.196496
H    1.364099   0.469597  -3.204805
H    0.673215   2.542154  -0.685234
H    0.103160  -0.768041  -0.388244
H    4.886000  -2.795113  -2.869719
H    7.062360  -2.681691  -0.221117
H    7.843289   1.912743  -1.021888
H    5.703685   1.815573  -3.696739
H    0.434826   0.792872   3.566650
H    2.509386   2.180272   5.922610
H    5.312965  -1.657762   5.734714
H    3.260760  -3.034598   3.313219

