%chk=mol_5162.chk
# wB97XD/Def2SVP opt freq pop=full gfinput

C 4 H 9 N 1 O 2

1 2
C    1.10024965  -0.28678989   1.27474952
N    2.30014896  -0.13125995   0.46442983
C    2.72542906   1.27594948   0.41554984
C    4.02817822   1.42454946  -0.38310987
O    5.11725807   0.73151976   0.25574991
C    5.71532774   1.40067947   1.27059960
O    5.40670776   2.49961901   1.70134938
H    0.80943972  -1.34113955   1.29535961
H    0.26357991   0.27770990   0.85177970
H    1.26638949   0.03707998   2.30682898
H    3.05723882  -0.68994975   0.86033964
H    2.87129879   1.64975929   1.43534946
H    1.94679928   1.87828934  -0.06609998
H    4.27920818   2.48266912  -0.52280980
H    3.91310859   0.99264961  -1.38347948
H    6.54062748   0.78858972   1.66581929

