%chk=mol_6903.chk
# wB97XD/Def2SVP opt freq pop=full gfinput

C 6 H 13 N 1

1 2
C    2.01583934  -1.05656958  -0.63829976
C    1.73257935   0.33709988  -0.09772997
C    2.99341893   1.07659960   0.32169986
C    3.64027858   0.54908979   1.58055937
C    3.89594841   1.62430942  -0.76524967
C    3.03597879   2.56558895   0.02347999
N    3.66094851   3.51849890   0.93639970
H    1.08656955  -1.52566934  -0.97723961
H    2.45534897  -1.70308936   0.12724996
H    2.70788884  -1.02013969  -1.48590946
H    1.05319953   0.26696992   0.75925970
H    1.19824946   0.90217966  -0.87181967
H    4.58151817   1.05585957   1.81267929
H    3.87107849  -0.51533979   1.48338950
H    2.96658897   0.67821974   2.43277907
H    3.62755871   1.45473945  -1.80230939
H    4.96708775   1.63218939  -0.59951979
H    2.18151903   2.98737884  -0.50421983
H    4.57079792   3.19540882   1.26053953
H    3.08888888   3.64251852   1.77127934

