%chk=mol_5099.chk
# wB97XD/Def2SVP opt pop=full gfinput

C 4 H 10 N 2 O 1

1 2
C    2.448537  -0.315735   0.722745
N    5.097895   0.162082   1.299281
C    5.843033   2.798344   0.798863
C    4.502159   4.708252   2.494420
C    8.660879   2.990756   1.312887
N   10.236269   3.557239  -0.473509
O   12.681348   3.610945   0.533337
H    2.062938  -2.339368   0.912398
H    1.972232   0.237709  -1.215982
H    1.191983   0.661952   2.042057
H    6.174945  -0.981788   0.174705
H    5.512029   3.268773  -1.192266
H    4.687617   4.206511   4.496565
H    2.488788   4.844256   2.043323
H    5.321998   6.595749   2.258582
H    9.300401   2.621768   3.267185
H   13.705787   4.062741  -0.931522

