%chk=mol_1355.chk
# wB97XD/Def2SVP opt pop=full gfinput

C 6 H 13 N 1

1 2
C    1.804027  -0.635118  -0.942331
C    4.605867  -0.421768  -1.547818
C    6.085334   0.670909   0.686840
N    8.784618   0.814510   0.078707
C    9.365237   3.102231  -1.451744
C   11.724976   3.456309   0.214748
C   10.205957   1.977145   2.207937
H    0.780684  -1.425043  -2.556988
H    0.995319   1.220933  -0.516160
H    1.487744  -1.871623   0.685706
H    4.837642   0.774410  -3.223249
H    5.337248  -2.300307  -2.029320
H    5.842051  -0.589519   2.315292
H    5.294446   2.511163   1.230741
H    8.009528   4.665186  -1.308522
H    9.747907   2.731561  -3.448788
H   13.407796   2.465658  -0.476929
H   12.220935   5.400610   0.699539
H   11.305419   0.643565   3.341697
H    9.103415   3.189725   3.479383

