%chk=mol_1025.chk
# wB97XD/Def2SVP opt freq pop=full gfinput

C 4 H 7 N 1 O 1

1 2
C    1.02775967  -1.69099939   0.04100998
C    1.94388926  -0.48895982   0.16155992
O    1.13555956   0.68533969   0.22954991
C    1.90899932   1.88536930   0.37373984
C    2.56040907   2.29844904  -0.88093966
N    3.09710884   2.62381887  -1.85820925
H    1.60561943  -2.61748886  -0.01928999
H    0.39817986  -1.60807943  -0.85111964
H    0.35400987  -1.75020933   0.90219963
H    2.60612893  -0.44293985  -0.70924973
H    2.54952908  -0.57443982   1.07037961
H    2.64015889   1.76285934   1.18073964
H    1.21305954   2.67030907   0.68812972

