%chk=mol_6613.chk
# wB97XD/Def2SVP opt freq pop=full gfinput

C 6 H 13 N 1

1 2
C    0.94018960   0.84338969  -0.41787985
C    2.27415919   0.14135994  -0.43556985
C    2.94143891  -0.00858000   0.92248964
C    3.58404875   1.29612958   1.40618956
N    4.19858837   1.12097967   2.71985888
C    2.44133902  -0.99158961  -1.42787957
C    3.15566897   0.30914989  -1.65571940
H    0.50272983   0.91325963  -1.42021954
H    1.03882968   1.86150932  -0.02945999
H    0.23281991   0.29861990   0.21654992
H    3.71033859  -0.79151970   0.87998968
H    2.19325924  -0.35134986   1.64909935
H    2.83875895   2.09578919   1.46388948
H    4.35282850   1.62020946   0.69671971
H    3.48101878   0.88008970   3.40238881
H    4.59613800   2.00837922   3.02495885
H    1.61521935  -1.23718953  -2.08623910
H    3.03773880  -1.85283935  -1.14637947
H    4.23273849   0.31944990  -1.52663946
H    2.81010914   0.94354969  -2.46471906

