%chk=mol_1634.chk
# wB97XD/Def2SVP opt pop=full gfinput

C 6 H 9 N 1

1 2
C    1.906507   0.005027   0.288221
N    4.635631   0.033089  -0.079161
C    5.850347   1.934305   1.581304
C    7.875849  -0.061889   2.277328
C    5.866881  -2.002278   1.399966
C   10.209548   0.017348   0.827681
C   12.130115   0.086455  -0.377114
H    1.083437  -1.628094  -0.681208
H    1.068035   1.701868  -0.549684
H    1.333296  -0.076364   2.277725
H    4.730457   2.557650   3.213914
H    6.530591   3.619846   0.591995
H    8.256100  -0.154750   4.313224
H    6.560657  -3.584074   0.260329
H    4.752094  -2.781979   2.967531
H   13.822553   0.150517  -1.467939

