%chk=mol_5626.chk
# wB97XD/Def2SVP opt freq pop=full gfinput

C 5 H 7 N 1 O 1

1 2
N    0.99999964   0.00000000   0.00000000
C    2.15100908   0.00000000   0.00000000
C    3.59500861   0.00000000   0.00000000
C    4.18659830   1.11417949   0.83704966
C    5.56576824   0.57836980   1.14778960
O    5.44203806  -0.84615970   1.23572958
C    4.17807817  -1.23092949   0.66885978
H    3.98324847   0.07514998  -1.02330959
H    3.62301874   1.24807954   1.76948941
H    4.21419859   2.08041930   0.32415989
H    6.27047777   0.80446970   0.34044987
H    5.96911764   0.97321963   2.08426929
H    4.33832836  -2.05051923  -0.03947999
H    3.55216861  -1.60884941   1.48623943

