%chk=mol_6479.chk
# wB97XD/Def2SVP opt pop=full gfinput

C 4 H 6 N 2 S 1

1 2
C    1.835907   0.368194   0.017763
C    4.598233  -0.116048  -0.001890
N    6.337367   1.662127  -0.016289
N    8.753003   0.677599  -0.032409
C    8.754666  -1.809640  -0.029177
C   11.069165  -3.394666  -0.044673
S    5.791462  -3.132845  -0.006066
H    0.724294  -1.376363  -0.002967
H    1.301152   1.486024  -1.639564
H    1.316629   1.437628   1.711525
H   10.643939  -5.418223  -0.019370
H   12.231347  -2.964432   1.611218
H   12.186806  -2.996350  -1.738907

