%chk=mol_5828.chk
# wB97XD/Def2SVP opt freq pop=full gfinput

C 4 H 8 N 2 O 1

1 2
N    1.53713942  -1.09017956  -0.64290977
C    2.02716923  -0.25353992   0.31261989
N    1.66379941  -0.33228987   1.54634941
C    3.07222867   0.76937973  -0.08241997
C    4.47065830   0.21980992   0.15675995
C    4.84845829  -0.86495966  -0.82433969
O    4.11582851  -1.28486955  -1.71722925
H    2.17617917  -1.23783946  -1.43186951
H    1.15059948  -1.96658921  -0.31867987
H    0.94371969  -1.05154955   1.64148939
H    2.92141891   1.66684937   0.52893978
H    2.92779899   1.05327952  -1.13107955
H    4.56868792  -0.19404992   1.16608953
H    5.20535803   1.02342963   0.04300999
H    5.86019754  -1.28452945  -0.68773979

