%chk=mol_6779.chk
# wB97XD/Def2SVP opt pop=full gfinput

C 6 H 9 N 1

1 2
C    1.986631  -0.001191   0.260726
C    4.512874  -0.021127   0.101667
C    6.178403   2.266708  -0.016837
N    8.371864   1.509230  -1.552467
C    8.682914  -1.213374  -1.035834
C    6.141043  -2.189663  -0.233684
C    5.568418  -4.624576   0.153994
H    0.880102  -1.721692   0.224556
H    0.956107   1.765817   0.414511
H    6.816072   2.787592   1.886249
H    5.235354   3.905006  -0.858824
H    7.858218   1.685277  -3.400789
H    9.379675  -2.178268  -2.729879
H   10.066704  -1.464349   0.485319
H    3.712518  -5.218082   0.789263
H    6.971710  -6.091948  -0.126744

