%chk=mol_4391.chk
# wB97XD/Def2SVP opt freq pop=full gfinput

C 5 H 11 N 1 O 1

1 2
C    3.93150854  -1.00563967  -0.77671969
C    3.02848887  -0.32546988   0.24267991
C    2.86390877   1.16767955  -0.02170999
C    4.13953829   1.91254938   0.25892991
N    4.76573801   2.52858901  -0.68874973
O    5.91303778   3.13023901  -0.15095994
C    6.60364723   3.79570866  -1.20181966
H    3.96725869  -2.08306932  -0.58787978
H    4.95444822  -0.62163979  -0.72099972
H    3.56024885  -0.85198969  -1.79448938
H    3.43262863  -0.49169981   1.24865949
H    2.04097915  -0.80092973   0.20866993
H    2.10064912   1.57237947   0.65183979
H    2.53991914   1.35019946  -1.05168962
H    4.51155853   1.90397930   1.29895961
H    7.49019718   4.27804852  -0.78198969
H    5.96428776   4.56221819  -1.65086937
H    6.92027712   3.07506871  -1.96202922

