%chk=mol_0369.chk
# wB97XD/Def2SVP opt freq pop=full gfinput

C 5 H 9 N 1

1 2
C    1.15142953  -0.33625990   0.03654999
C    2.66475892  -0.19037993   0.04844998
C    3.08765888   1.27430964  -0.06361998
C    4.60927820   1.41679943  -0.04851998
C    5.00922823   2.82648897  -0.15391994
N    5.32702780   3.93899846  -0.23687991
H    0.87168968  -1.39086950   0.12288995
H    0.72717971   0.05262998  -0.89462966
H    0.69839978   0.20494992   0.87332964
H    3.08785892  -0.76499969  -0.78372973
H    3.06002879  -0.62208980   0.97530967
H    2.65305901   1.84737933   0.76561975
H    2.68361902   1.70447934  -0.98914963
H    5.04435825   0.85080969  -0.88028967
H    5.01371813   0.99116963   0.87709969

