%chk=mol_6829.chk
# wB97XD/Def2SVP opt pop=full gfinput

C 6 H 11 N 1

1 2
C    1.696388  -0.702714  -0.176538
C    4.449058  -0.836317  -0.737428
N    5.372378  -0.445919  -3.305849
C    5.894831   1.524007  -1.431222
C    8.550595   1.905222  -0.506862
C    8.706327   2.520876   2.265101
C    9.563771   4.703831   3.207338
H    1.400193  -0.071432   1.772242
H    0.831876  -2.571445  -0.383274
H    0.698065   0.609229  -1.430749
H    5.402727  -2.283507   0.354664
H    3.949282   0.097226  -4.491388
H    4.875456   3.289106  -1.643306
H    9.419415   3.416530  -1.631004
H    9.691347   0.206094  -0.848298
H    8.094680   1.046039   3.560830
H   10.212005   6.226062   1.994152
H    9.640683   5.010798   5.235656

