%chk=mol_4779.chk
# wB97XD/Def2SVP opt pop=full gfinput

C 4 H 8 N 2 O 1

1 2
C    1.713528   0.171323   1.113219
C    4.426022   0.322916   0.161213
N    4.554145  -0.253356  -2.554872
N    4.234668  -2.708129  -3.212138
C    4.400813  -3.091781  -5.617097
C    5.455356   2.976035   0.586873
O    6.864902   4.085494  -0.893236
H    1.612031   0.667848   3.121015
H    0.944788  -1.738340   0.897620
H    0.478913   1.485551   0.093863
H    5.634710  -0.966878   1.241720
H    6.201231   0.504840  -3.255450
H    4.170607  -5.019982  -6.365788
H    4.754117  -1.579471  -7.011168
H    5.019755   3.818324   2.444947

