%chk=mol_6854.chk
# wB97XD/Def2SVP opt pop=full gfinput

C 6 H 11 N 1

1 2
C    1.881789   0.128445   0.094449
C    4.759502  -0.014948   0.065819
N    5.864009   2.070894   1.560857
C    8.423926   1.184291   2.175358
C    8.143812  -1.616661   2.772568
C    5.886648  -2.360173   1.223976
C    5.031490  -4.735672   1.031866
H    1.056073  -1.325057  -1.125578
H    1.231799   1.964824  -0.606961
H    1.117546  -0.132413   2.001163
H    5.432906   0.164671  -1.887515
H    4.857314   2.221543   3.198153
H    9.667953   1.471001   0.542238
H    9.224113   2.236000   3.766470
H    9.843829  -2.668898   2.245335
H    7.745175  -1.893147   4.785694
H    3.374616  -5.198844  -0.083753
H    5.979944  -6.284152   1.987198

