%chk=mol_7130.chk
# wB97XD/Def2SVP opt freq pop=full gfinput

C 7 H 10

1 2
C    1.00613964   0.07388997   0.00655000
C    2.49133897   0.00672000   0.00668000
C    3.24718857  -1.10659969   0.00939000
C    4.70071840  -0.74184972   0.00506000
C    4.64239836   0.75502968  -0.00003000
C    3.36372852   1.16896963   0.00256000
C    2.90437889   2.58388901  -0.00135000
H    0.56150979  -0.92700964   0.00901000
H    0.64271975   0.59569979  -0.88451970
H    0.64250976   0.60118979   0.89415967
H    2.87628889  -2.12040925   0.01282000
H    5.20207787  -1.12206960  -0.88898963
H    5.20493793  -1.11563957   0.90097970
H    5.51156759   1.39534950  -0.00360000
H    1.81514931   2.66921878  -0.05199998
H    3.31479883   3.11693883  -0.86530972
H    3.23312879   3.09414887   0.90996969

