%chk=mol_4981.chk
# wB97XD/Def2SVP opt freq pop=full gfinput

C 4 H 6 N 2 O 1

1 2
C    0.97482967   0.03367998  -0.00793000
N    2.40886903   0.01134000   0.00135000
C    3.24791861   1.10267949   0.00306000
C    4.51502848   0.66732979   0.00896000
N    4.50783825  -0.70401973   0.01027000
C    3.18091893  -1.16809952   0.00478000
O    2.80994916  -2.32704902   0.00294000
H    0.60196978   1.06167960   0.00717000
H    0.60620975  -0.50847983   0.86758971
H    0.61880976  -0.47824982  -0.90653968
H    2.87935877   2.11663914   0.00002000
H    5.43201780   1.23547959   0.01196000
H    5.30627823  -1.31956947   0.01354000

