%chk=mol_1325.chk
# wB97XD/Def2SVP opt pop=full gfinput

C 5 H 12 N 2

1 2
C    5.603132  -2.205991  -0.580581
C    4.517560  -0.039098   0.973152
C    5.798927   2.502602   0.402172
C    4.451590   4.644834   1.791139
N    8.427007   2.422629   1.202848
C   10.254467   3.910845   0.203731
N   12.496456   4.157341   1.097383
H    4.570983  -3.953307  -0.179883
H    7.595641  -2.532082  -0.134813
H    5.442071  -1.817879  -2.605705
H    4.694514  -0.501401   2.986958
H    2.490527   0.104483   0.562817
H    5.694784   2.859968  -1.637467
H    4.516464   4.371428   3.842588
H    2.466905   4.761071   1.218023
H    5.339251   6.468476   1.376722
H    8.765589   1.634103   2.913221
H    9.686226   4.952046  -1.511006
H   12.698620   3.042913   2.659261

