%chk=mol_5534.chk
# wB97XD/Def2SVP opt freq pop=full gfinput

C 5 H 11 N 1 O 1

1 2
N    0.99488962   0.03172999   0.15514995
C    2.45640898   0.01366000   0.02642999
C    2.92706895  -1.32587957  -0.54744977
C    2.61373901  -1.44260955  -2.03419924
O    3.17936873  -0.34496987  -2.75329900
C    2.61636901   0.90011966  -2.33616900
C    2.92970896   1.16325963  -0.86832964
H    0.70082974   0.90849966   0.58620983
H    0.69946975  -0.70680976   0.79406971
H    2.87953901   0.14252995   1.02982962
H    2.49023914  -2.16830921   0.00095000
H    4.01498842  -1.38726950  -0.41495982
H    3.05605888  -2.36119914  -2.43313909
H    1.53497934  -1.49024940  -2.22320914
H    3.06070876   1.68651927  -2.95436883
H    1.53780937   0.90078968  -2.53124905
H    4.01787853   1.25394952  -0.75504971
H    2.49478912   2.11816931  -0.55103981

