%chk=mol_5941.chk
# wB97XD/Def2SVP opt freq pop=full gfinput

C 4 H 6 N 2 O 1

1 2
O    1.36758947   0.12647995   1.16977954
C    2.60045910   0.05468998   0.42598984
C    2.65539885   0.83348972  -0.85770965
N    3.95120859   1.17262959  -1.46734941
C    4.46091843  -0.04706999  -1.84059930
N    3.77707863  -1.12196958  -1.56800938
C    2.56427908  -0.69252980  -0.88483971
H    0.60908973   0.38203984   0.61884975
H    3.51125860  -0.03115999   1.01015961
H    1.80472934   1.40160942  -1.20532954
H    4.04874849   1.92843926  -2.13499928
H    5.40834808  -0.02689999  -2.40027928
H    1.65493941  -1.22903955  -1.11640966

