%chk=mol_7110.chk
# wB97XD/Def2SVP opt freq pop=full gfinput

C 6 H 5 N 1

1 2
C    0.96365964  -0.01576000  -0.00630000
C    2.46489930  -0.02778999  -0.00284000
C    3.14846897  -1.18228960   0.00208000
C    3.18161893   1.20523953  -0.00294000
C    3.78167844   2.24565911  -0.00216000
C    4.54765844   3.57345867  -0.00053000
N    5.12643814   4.57913828   0.00083000
H    0.57050979   1.00663960   0.01028000
H    0.57104981  -0.53477979   0.87458968
H    0.57628977  -0.50484979  -0.90637964
H    2.63560915  -2.13942909   0.00262000
H    4.23447847  -1.20694947   0.00516000

