%chk=mol_4346.chk
# wB97XD/Def2SVP opt freq pop=full gfinput

C 5 H 11 N 1 O 1

1 2
C    1.55985940  -0.49079981  -0.63507974
C    2.91294885  -0.49223980   0.05621998
C    3.66840863   0.80925971  -0.19017993
C    5.00825834   0.77873969   0.51722980
C    5.05139828   1.18301952   1.97140932
N    6.04225779   0.35813987  -0.14982995
O    7.19235754   0.35185987   0.64605975
H    1.04382956  -1.44048941  -0.46100980
H    1.67075932  -0.35818988  -1.71643937
H    0.92525965   0.31550986  -0.25301990
H    3.50471878  -1.34035945  -0.30806988
H    2.77087879  -0.64832979   1.13178957
H    3.09371877   1.66953933   0.17110993
H    3.83746839   0.95428962  -1.26397955
H    4.08025837   1.56687939   2.29408908
H    5.79967737   1.96708918   2.11555910
H    5.30690813   0.31422988   2.58368897
H    7.86884689   0.01205000   0.03125999

