%chk=mol_6971.chk
# wB97XD/Def2SVP opt freq pop=full gfinput

C 6 H 9 N 1

1 2
C    2.05822921  -0.62673974  -1.20171952
C    2.14883924   0.30044988  -0.23786990
C    3.28618884   1.19067955   0.00351000
N    3.73439860   2.05211926  -1.08568954
C    3.05449891   2.68619895   0.03718999
C    3.87481856   3.51313877   0.92107964
C    3.58497882   3.82746863   2.19064927
H    1.17614961  -1.25144947  -1.29539955
H    2.86670899  -0.78095973  -1.90997934
H    1.31350946   0.39801985   0.45326984
H    4.07235861   0.77908975   0.62878978
H    3.10444903   1.97168922  -1.88408923
H    2.06235909   3.07280874  -0.17276993
H    4.79749823   3.90749836   0.49693981
H    2.68029904   3.46883869   2.67035890
H    4.25413847   4.45257854   2.77319908

