%chk=mol_3653.chk
# wB97XD/Def2SVP opt freq pop=full gfinput

C 5 H 8 O 2

1 2
O    2.44078922  -0.38390988   1.38490951
C    2.48679900   0.01884999   0.02287999
C    3.01784873   1.41006947  -0.06053998
C    4.21424866   1.79698932  -0.50009978
C    4.32181835   3.26574874  -0.37735987
C    2.89346886   3.64361882  -0.00324000
O    2.17789912   2.44396901   0.34958985
H    1.89725935  -1.18709958   1.41886938
H    1.47700942  -0.02451999  -0.39811984
H    3.12080884  -0.68627971  -0.52395982
H    5.00109816   1.14355958  -0.84445971
H    5.02953768   3.53988862   0.41163984
H    4.63229847   3.74736857  -1.30890954
H    2.37484932   4.11297846  -0.84744966
H    2.86640906   4.33871841   0.84232968

