%chk=mol_3974.chk
# wB97XD/Def2SVP opt pop=full gfinput

C 4 H 8 N 2 O 1

1 2
C    1.553260   0.553236  -0.461925
C    3.662157  -1.304535  -0.284366
C    5.135766  -2.027752  -2.603778
N    6.251308  -0.407708  -0.656888
N    7.835825  -1.871830   0.846560
C    8.639998  -0.945865   3.130161
O   10.324689  -1.923174   4.379799
H    1.335734   1.559402   1.333807
H   -0.223989  -0.427248  -0.865684
H    1.861947   1.957775  -1.952333
H    3.302145  -2.739895   1.132966
H    4.705645  -1.096003  -4.374754
H    5.763155  -3.967310  -2.788744
H    8.958492  -3.216635   0.067104
H    7.605638   0.752319   3.757116

