%chk=mol_2205.chk
# wB97XD/Def2SVP opt freq pop=full gfinput

C 6 H 10 O 1

1 2
C   -1.63304949   0.86966968   0.55493981
C   -1.18487966  -0.31116989  -0.26101989
C   -0.32880986  -1.39969945   0.30267990
C    1.05013967  -1.30057955  -0.34098986
C    1.70766938   0.05898998  -0.08173997
O    0.80163968   1.12764966   0.19929992
C   -0.49539983   1.01611960  -0.41755986
H   -2.57606912   1.33746946   0.29894987
H   -1.40146947   0.89235967   1.61324942
H   -1.80981934  -0.64666975  -1.07979965
H   -0.24580990  -1.31486952   1.39207947
H   -0.77557969  -2.37512898   0.08436997
H    1.70578933  -2.10760927   0.00350000
H    0.94309962  -1.43172944  -1.42602944
H    2.36542916  -0.02386999   0.78996968
H    2.33636928   0.34603986  -0.93093967
H   -0.67448974   1.57906938  -1.32695949

