%chk=mol_4069.chk
# wB97XD/Def2SVP opt pop=full gfinput

C 5 H 7 N 1 O 1

1 2
C    1.716193   0.163972  -0.015704
C    4.507828   0.073699  -0.004932
C    6.170995   2.069250   0.011905
O    8.576333   1.200033   0.016573
N    8.555243  -1.409585   0.002778
C    6.117157  -2.078567  -0.009959
C    5.427010  -4.790399  -0.027269
H    1.025214   2.113999  -0.000000
H    0.953310  -0.796746   1.649806
H    0.967483  -0.764867  -1.705572
H    5.969172   4.100044   0.021694
H    3.375920  -5.054583  -0.020031
H    6.195580  -5.745164   1.640566
H    6.180935  -5.719332  -1.716117

