%chk=mol_0068.chk
# wB97XD/Def2SVP opt freq pop=full gfinput

C 4 H 6 O 1

1 2
C    1.00060964  -0.05876998  -0.00078000
C    2.51999903   0.00000000   0.00000000
O    3.00236893  -0.67851979  -1.15592957
C    3.00201893   1.36116946   0.00000000
C    3.39929867   2.48306894   0.00000000
H    0.57799977   0.43095985   0.88371968
H    0.65721971  -1.09965968  -0.02073999
H    0.58325982   0.42590985  -0.89233965
H    2.89949894  -0.53941977   0.87387967
H    2.79680896  -0.11400996  -1.92043924
H    3.76075840   3.48571873   0.00164000

