%chk=mol_6652.chk
# wB97XD/Def2SVP opt freq pop=full gfinput

C 4 H 6 N 2 S 1

1 2
N    1.92567933  -0.45446983  -1.21205962
C    2.59508896  -0.13083994   0.04421999
C    3.00274873   1.30075943   0.07154997
C    2.28450918   2.44348907  -0.22920991
C    3.09101892   3.60027862  -0.04372999
N    4.33777809   3.40427876   0.37507984
S    4.57620811   1.77356935   0.56120980
H    1.70383930  -1.44830942  -1.22239947
H    2.57790899  -0.30228987  -1.98076928
H    3.45643878  -0.79620969   0.16950995
H    1.90805924  -0.32485989   0.87523967
H    1.25547945   2.44198895  -0.56440979
H    2.77982903   4.62354851  -0.21192992

