%chk=mol_4803.chk
# wB97XD/Def2SVP opt freq pop=full gfinput

C 4 H 7 N 1 O 2

1 2
C    0.67649972   0.00102000  -0.08883997
C    2.16926908  -0.03691998  -0.17035994
N    2.88983893   0.81975967   0.47581983
O    4.24428844   0.55946982   0.21855992
C    5.02522802   1.54601943   0.88493967
C    6.46695757   1.17458951   0.67458975
O    7.35173750   1.98444927   0.40886986
H    0.31867987  -0.95500970   0.30227989
H    0.27109993   0.14142995  -1.09433961
H    0.33925989   0.81324971   0.56005979
H    2.61758924  -0.82278967  -0.80304974
H    4.81554842   1.53408945   1.95910931
H    4.83017778   2.53492904   0.45914981
H    6.71674728   0.11713996   0.86658973

