%chk=mol_2808.chk
# wB97XD/Def2SVP opt pop=full gfinput

C 6 H 8 O 1

1 2
C    1.865349  -0.298652   0.012019
C    4.737789  -0.086720   0.037851
C    5.855411  -1.379538  -2.166344
C    6.759607  -2.451334  -3.951587
C    5.496778   2.685546   0.203637
C    5.595404   4.225824  -2.194993
O    5.902427   3.692884   2.268106
H    1.039274   0.662821   1.648805
H    1.267099  -2.280408   0.063873
H    1.049573   0.556619  -1.689094
H    5.456093  -1.007715   1.751587
H    7.563402  -3.410899  -5.530756
H    3.838601   4.006578  -3.255828
H    7.210118   3.645886  -3.343625
H    5.817163   6.225986  -1.716797

