%chk=mol_6517.chk
# wB97XD/Def2SVP opt freq pop=full gfinput

C 5 H 7 N 1 S 1

1 2
C    0.94285965  -0.15591994   0.00932000
C    2.45226908   0.03123999   0.00771000
C    2.84628892   1.47321939  -0.00145000
C    3.07523870   2.25718927   1.11607957
S    3.50011873   3.83865857   0.62033975
N    3.39858866   3.53890848  -1.00657964
C    3.04932904   2.26700926  -1.17680955
H    0.69226974  -1.22144961   0.01537999
H    0.48673981   0.29587987  -0.87826967
H    0.48748979   0.30580989   0.89218968
H    2.87852883  -0.47091982  -0.86906970
H    2.87934899  -0.46216983   0.88915968
H    3.01504898   1.99069929   2.16130900
H    2.94206905   1.92172933  -2.19765925

