%chk=mol_6701.chk
# wB97XD/Def2SVP opt freq pop=full gfinput

C 4 H 6 O 2 S 1

1 2
O    1.05355954   0.00587000   0.33380988
S    2.49907899  -0.00038000   0.21088992
O    3.35806894  -0.00572000   1.38063943
C    2.97724891  -1.35273945  -0.86423969
C    3.44453883  -0.67107970  -2.11338925
C    3.45046878   0.66809976  -2.11160922
C    2.98921871   1.35055959  -0.86064970
H    2.10800910  -1.98681927  -1.04877961
H    3.78457856  -1.91779935  -0.39170983
H    3.75906873  -1.25388956  -2.97121882
H    3.77015853   1.25037944  -2.96788907
H    3.80151868   1.90718937  -0.38662985
H    2.12561917   1.99280918  -1.04349959

