%chk=mol_1613.chk
# wB97XD/Def2SVP opt freq pop=full gfinput

C 4 H 7 N 3

1 2
C    1.01664960  -0.01549999   0.29133987
C    2.51999903   0.00000000   0.00000000
N    2.78578877  -0.67340976  -1.29452956
N    2.51530910  -2.00394917  -1.33817959
C    2.41323924  -2.45579910  -2.54402900
C    3.00201893   1.36116946   0.00000000
N    3.38622880   2.44615912   0.00000000
H    0.79665971   0.49067980   1.23880947
H    0.63358980  -1.03872955   0.36993986
H    0.44901982   0.49859983  -0.49402982
H    3.03627896  -0.55693984   0.79184967
H    3.76987839  -0.50966984  -1.53091943
H    2.19459915  -3.52321863  -2.70755911
H    2.52234888  -1.82704926  -3.44486880

