%chk=mol_2226.chk
# wB97XD/Def2SVP opt pop=full gfinput

C 5 H 6 O 2

1 2
C    0.726921   2.709905   0.972415
O    2.517814   0.630072   0.617657
C    1.214149  -0.961587  -1.170780
O   -0.314602   0.749069  -2.642858
C   -1.605096   1.802062  -0.477931
C   -2.608030  -0.581790   0.694871
C   -0.806856  -2.315311   0.275352
H    1.570306   4.389153   0.108886
H    0.407916   3.023808   2.989792
H    2.464883  -2.124751  -2.327349
H   -3.008935   3.215898  -1.004711
H   -4.325753  -0.797427   1.764343
H   -0.742984  -4.241622   0.925191

