%chk=mol_6108.chk
# wB97XD/Def2SVP opt freq pop=full gfinput

C 5 H 7 N 1 O 1

1 2
O    2.15441918  -0.50111985  -1.32651949
C    2.37781906  -0.04409998   0.00156000
C    2.89778876   1.35004950   0.00858000
C    2.15541911   2.51685905  -0.02370999
N    3.01602888   3.58214855  -0.00958000
C    4.30500841   3.12449884   0.03960998
C    4.26516867   1.74827933   0.04586998
H    1.81911922  -1.40859950  -1.25247955
H    3.09116864  -0.72082973   0.48401982
H    1.43123949  -0.10016996   0.55003983
H    1.08574963   2.67391896  -0.06948997
H    2.74133897   4.55544853  -0.03898999
H    5.13844824   3.81356859   0.05429998
H    5.12739801   1.09415960   0.06694997

