%chk=mol_2705.chk
# wB97XD/Def2SVP opt freq pop=full gfinput

C 6 H 10 O 1

1 2
C    0.82838970   0.33767989   0.47251981
C    2.28033900   0.04909998   0.23645991
C    2.76443887  -1.20397961   0.23014991
C    3.24497867   1.17017949   0.01669999
C    2.72317886   2.59729886  -0.21303992
O    3.62535858   3.12311888   0.79625970
C    3.86658859   1.77766931   1.28389955
H    0.70289975   0.98912966   1.34327960
H    0.25548989  -0.57659978   0.66190976
H    0.38753983   0.82606971  -0.40224984
H    2.11740923  -2.06249928   0.38940984
H    3.81759858  -1.41408944   0.06538998
H    4.00459862   0.90937966  -0.73403972
H    1.68610942   2.82253885   0.05012998
H    2.94037890   3.01215887  -1.20196950
H    4.93374825   1.57939935   1.41866946
H    3.33806872   1.60456944   2.22730923

