%chk=mol_6293.chk
# wB97XD/Def2SVP opt freq pop=full gfinput

C 4 H 7 N 1 O 2

1 2
O    2.04727912   2.79628897   0.31409988
C    1.93880928   1.59968936   0.53992981
N    2.95024872   0.67940974   0.43157986
C    4.32306814   1.08265960   0.05012998
C    5.17677832   1.63901937   1.19642961
O    6.04601765   0.48020983   1.17676950
C    5.35401821  -0.05087998   0.02446999
H    0.99260962   1.13805950   0.86706972
H    2.74757910  -0.27280989   0.71272969
H    4.33186817   1.69727933  -0.85663962
H    4.67936802   1.74487936   2.16533899
H    5.72737741   2.55598903   0.96450961
H    6.00191736  -0.06963997  -0.85716969
H    4.97279835  -1.05782962   0.21800992

