%chk=mol_5876.chk
# wB97XD/Def2SVP opt freq pop=full gfinput

C 4 H 3 N 1 O 2

1 2
N    1.14744949  -0.21041992   0.54811978
C    2.11124921   0.00768000  -0.40267986
O    2.48117900  -0.84991968  -1.18777955
C    2.69986916   1.42687941  -0.40951985
O    2.28712893   2.24310899   0.40906987
C    3.72298861   1.81220937  -1.35751951
C    4.57279825   2.13665915  -2.14330935
H    0.87544966   0.53643978   1.17859960
H    0.71161968  -1.11880958   0.61749977
H    5.32583761   2.42332911  -2.84014893

