%chk=mol_6218.chk
# wB97XD/Def2SVP opt freq pop=full gfinput

C 4 H 7 N 1 O 2

1 2
O    1.50396943  -0.39003986   1.08479965
C    1.82352924   0.17420992  -0.17753993
C    2.74317884   1.38864946  -0.01936999
C    2.12850928   2.74424911   0.15120995
C    0.86565965   2.94765878   0.54592979
N    4.02251816   1.14496958  -0.03365999
O    4.78565836   2.30597925   0.13487995
H    2.35701895  -0.62092978   1.49711943
H    0.89874965   0.44959983  -0.69003975
H    2.32277918  -0.58729976  -0.78500968
H    2.77821898   3.59208870  -0.04171998
H    0.18698992   2.13667941   0.79310971
H    0.48652980   3.95799851   0.66370976
H    5.69861794   1.96181929   0.12486996

