%chk=mol_2631.chk
# wB97XD/Def2SVP opt pop=full gfinput

C 6 H 12 O 1

1 2
C    4.309105  -0.935074  -2.954530
C    4.512647  -0.077101  -0.221136
C    6.128533   2.291368  -0.026777
C    4.955863   4.796578  -0.906124
O    5.665531   6.026148   1.436154
C    6.184507   3.585925   2.587054
C    8.692060   3.610341   3.964740
H    3.174683  -2.660016  -3.084997
H    6.179404  -1.330065  -3.749916
H    3.416039   0.514856  -4.128655
H    5.363685  -1.593455   0.903327
H    2.615570   0.256417   0.537627
H    8.026952   1.994247  -0.813036
H    2.902903   4.814342  -1.159290
H    5.870944   5.668649  -2.541001
H    4.622081   3.052361   3.842871
H   10.223041   4.292173   2.751082
H    9.184353   1.707500   4.610516
H    8.599010   4.840364   5.625866

