%chk=mol_5101.chk
# wB97XD/Def2SVP opt pop=full gfinput

C 4 H 10 N 2 O 1

1 2
C    1.949971  -0.020749  -0.280624
N    4.675731  -0.169622   0.069353
C    5.825912   2.351140  -0.098020
C    8.674127   2.056778   0.170567
C    9.749872   1.857903   2.805469
N   10.025753   1.876876  -1.881260
O   12.587730   1.539314  -1.319312
H    1.138825  -1.919168  -0.170964
H    1.462100   0.773522  -2.126849
H    1.069963   1.120419   1.202659
H    5.432849  -1.264208  -1.331803
H    5.132269   3.588911   1.408848
H    5.413857   3.234890  -1.926198
H    8.308974   2.307582   4.217018
H   11.319403   3.183338   3.032689
H   10.419516  -0.070846   3.129273
H   13.345643   1.397944  -2.993534

