%chk=mol_0089.chk
# wB97XD/Def2SVP opt pop=full gfinput

C 3 H 7 N 1 O 1

1 2
C    1.866294  -0.165030  -0.098115
C    4.714356   0.060433   0.125553
C    5.471400   2.796171   0.122549
N    6.452148   3.827092   2.108859
O    6.959105   6.369379   1.586727
H    1.297977  -2.153041  -0.120017
H    1.183649   0.724332  -1.837853
H    0.922810   0.763922   1.492638
H    5.627642  -0.858654  -1.486685
H    5.372718  -0.850679   1.862042
H    5.136748   3.876698  -1.632175
H    7.680792   6.961657   3.176630

