%chk=mol_3270.chk
# wB97XD/Def2SVP opt pop=full gfinput

C 5 H 4 O 2

1 2
C    1.505828   1.091128   0.331609
C    3.963568   0.935622  -0.257173
O    5.040901  -1.194836  -1.414233
C    4.846618  -3.407290  -0.104861
O    3.910278  -3.777563   1.971891
C    5.580928   3.058748   0.058638
C    6.959975   4.841743   0.330230
H    0.710197   2.791371   1.157533
H    0.232852  -0.485149   0.025190
H    5.728799  -4.905294  -1.250243
H    8.184215   6.419230   0.577330

