%chk=mol_3271.chk
# wB97XD/Def2SVP opt freq pop=full gfinput

C 5 H 6 O 2

1 2
C    0.90103966   2.34168911  -1.66164947
C    1.98333919   2.01691914  -0.95224965
O    2.86047888   2.99242902  -0.47735980
C    3.92385864   2.53636909   0.25129992
O    4.20110846   1.38127947   0.53360975
C    4.71789837   3.71840882   0.66207975
C    5.82254791   3.57975864   1.40664947
H    0.22584991   1.57470942  -2.02534914
H    0.66971970   3.37631869  -1.89135933
H    2.24483919   0.99568963  -0.70466971
H    4.37146854   4.69305801   0.33991987
H    6.17111778   2.60338902   1.73130941
H    6.40234756   4.44606829   1.70773935

