%chk=mol_4666.chk
# wB97XD/Def2SVP opt freq pop=full gfinput

C 5 H 11 N 1 O 1

1 2
C    0.62470973  -0.04521998  -0.00451000
C    2.09989929  -0.26259989  -0.33754987
N    2.24871922  -0.68242979  -1.73156941
C    2.92609882   0.97399962  -0.04878998
C    2.73553896   2.19681907  -0.89585972
C    3.49367881   1.14993954   1.34662950
O    4.30609846   0.70330971   0.25435990
H    0.50626981   0.27062988   1.03732955
H    0.05204998  -0.96896964  -0.14229995
H    0.17267993   0.72660977  -0.63642979
H    2.46558905  -1.08705962   0.28772989
H    1.80770934  -0.00410000  -2.34927917
H    1.75225925  -1.56010938  -1.87542927
H    3.39048862   3.01557875  -0.57567978
H    1.70438945   2.55864906  -0.83064967
H    2.96508884   1.99108922  -1.94642925
H    3.24798894   0.42489985   2.11242914
H    3.66892862   2.15019917   1.72226942

