%chk=mol_1481.chk
# wB97XD/Def2SVP opt freq pop=full gfinput

C 6 H 13 N 1

1 2
C    1.69581938   2.53881907   1.68021941
C    2.93033886   2.48010898   0.79310971
N    3.81872869   1.41060948   1.25031960
C    5.00940800   1.36445951   0.40273985
C    6.07228756   2.35983896   0.92867965
C    7.10590744   1.23036945   0.72788972
C    5.93701792   0.23592992   0.91311967
H    1.02859962   3.33991861   1.34553957
H    1.96643925   2.73874903   2.72299910
H    1.13544953   1.59798944   1.64519930
H    3.43996882   3.44926858   0.83303970
H    2.61818886   2.30266905  -0.24252991
H    3.30040884   0.53226978   1.26539958
H    4.85066843   1.36144948  -0.68163973
H    5.96595764   2.66521883   1.97756934
H    6.22940779   3.25191879   0.31625989
H    7.54940701   1.20915949  -0.27415991
H    7.90224695   1.17383957   1.47362947
H    5.98136759  -0.65983975   0.28743991
H    5.79579782  -0.06969997   1.95762932

