%chk=mol_4018.chk
# wB97XD/Def2SVP opt freq pop=full gfinput

C 4 H 6 N 2 O 1

1 2
C    0.96021962   0.04866998   0.01878999
C    2.43225908   0.05792998  -0.07221998
C    3.29399872   1.07261956  -0.12781996
N    4.59062815   0.66045976  -0.21107993
O    4.60110807  -0.73654974  -0.07574997
C    3.28774858  -1.14500964  -0.04449998
N    2.96161890  -2.38245893   0.02381999
H    0.55610979   1.06575954   0.04387999
H    0.63270980  -0.46544984   0.92758965
H    0.52613980  -0.46475983  -0.84461969
H    3.07179880   2.13066936  -0.10777996
H    5.23255825   1.13021958   0.42594984
H    1.94445932  -2.47829890   0.04171998

