%chk=mol_5127.chk
# wB97XD/Def2SVP opt pop=full gfinput

C 4 H 10 N 2 O 1

1 2
C    1.829160  -0.449282  -0.514289
N    4.474720  -0.127273   0.178485
C    5.272411   2.500353  -0.209325
C    8.008829   2.718598   0.557658
N    9.753198   3.140725  -1.103921
O   12.095325   3.241069   0.137213
C   14.006348   3.722666  -1.692817
H    1.271672  -2.415713  -0.204809
H    1.506886  -0.001493  -2.507818
H    0.601613   0.737598   0.653694
H    5.558308  -1.265077  -0.945033
H    4.181095   3.782041   0.995753
H    5.059364   3.063907  -2.189777
H    8.445961   2.477790   2.585769
H   15.830632   3.797839  -0.727790
H   13.666878   5.539713  -2.620597
H   14.054819   2.203402  -3.095012

