%chk=mol_5473.chk
# wB97XD/Def2SVP opt freq pop=full gfinput

C 5 H 9 N 1 O 1

1 2
N    1.42528951  -0.38375986  -0.35353988
C    2.78311896   0.00407000   0.02806999
C    3.69796872  -1.05860960   0.58487976
C    3.97381854  -0.46264985  -0.75802976
O    4.92593813   0.62784976  -0.82680970
C    4.22629833   1.83774924  -0.49112982
C    3.05239868   1.43351948   0.40351987
H    1.04253960   0.25285992  -1.05109966
H    0.79904974  -0.34271988   0.44916984
H    3.34311867  -2.08171940   0.61212975
H    4.36564827  -0.80568969   1.39993954
H    3.81851864  -1.07304955  -1.63909936
H    4.90503836   2.53495908   0.00773000
H    3.87202859   2.28973913  -1.42366946
H    3.33779883   1.49688947   1.46037936
H    2.19735909   2.09965920   0.24908991

