%chk=mol_4226.chk
# wB97XD/Def2SVP opt freq pop=full gfinput

C 5 H 5 N 1 O 1

1 2
C    2.78521895  -1.09145963   0.41119984
C    2.19638920   0.08277997   0.15337993
C    2.93845892   1.29432952   0.11844996
C    2.48871899   2.58058906  -0.13052996
C    3.62299871   3.40164876  -0.04609998
N    4.71930838   2.70105910   0.23526992
O    4.29748869   1.38823938   0.33857989
H    2.20297909  -2.00645924   0.43384981
H    3.85088849  -1.17813957   0.60524976
H    1.12837958   0.12136996  -0.03463999
H    1.47279942   2.87618876  -0.34399986
H    3.70317841   4.47116804  -0.17537995

