%chk=mol_3499.chk
# wB97XD/Def2SVP opt freq pop=full gfinput

C 7 H 14

1 2
C    2.13556933  -0.97689968  -0.71261978
C    1.97245920   0.39358985  -0.07641997
C    3.23353887   1.19982958  -0.17089994
C    3.35559869   2.32969904  -1.16271961
C    3.22423887   2.63224912   0.30866989
C    4.39079809   3.17707872   1.07683957
C    4.44740820   2.60536909   2.48484898
H    1.19781947  -1.53811944  -0.65576977
H    2.91000891  -1.55593944  -0.19746992
H    2.42538905  -0.89153963  -1.76499939
H    1.70756924   0.26811990   0.97945964
H    1.13871968   0.91815966  -0.55736977
H    4.11913872   0.61084974   0.04525998
H    2.51025891   2.55721903  -1.80246937
H    4.31674862   2.47700906  -1.64293945
H    2.28397918   3.04961896   0.65405971
H    4.29966831   4.26824856   1.13113964
H    5.33469820   2.95980883   0.56321979
H    3.51450872   2.79396892   3.02500892
H    5.26995802   3.05719900   3.04724884
H    4.60706806   1.52253950   2.46118927

