%chk=mol_5683.chk
# wB97XD/Def2SVP opt freq pop=full gfinput

C 4 H 9 N 1 O 2

1 2
N    2.02397919  -0.39591986  -1.26457953
C    2.49072909   0.21636993  -0.01200000
C    3.35507870   1.48541939  -0.19274992
O    2.56299901   2.58219886  -0.67592973
C    2.98711896   3.69652867   0.10470996
C    3.32911897   3.07315874   1.42895949
O    3.95694852   1.84362936   1.06597960
H    1.52981949  -1.26079953  -1.05150962
H    2.82387900  -0.64832979  -1.84255934
H    3.06249881  -0.53002983   0.55116981
H    1.61139941   0.46449983   0.59328979
H    4.16673851   1.29714942  -0.90492970
H    3.86866856   4.13477850  -0.37615988
H    2.19697905   4.44863844   0.16917995
H    3.99937868   3.68494868   2.03687930
H    2.42955923   2.83599901   2.00648928

