%chk=mol_5940.chk
# wB97XD/Def2SVP opt freq pop=full gfinput

C 5 H 7 N 1 O 1

1 2
O    0.84077966  -0.25716990  -0.14843996
C    2.18806911   0.16437994   0.17112994
C    3.39547873  -0.65531975  -0.46581981
N    4.19841862   0.63556975  -0.20721991
C    2.89884901   1.22531962  -0.78271973
C    2.89977908   0.66535974  -2.15605903
C    3.23767877  -0.61266977  -1.94125926
H    0.29920989   0.54108983  -0.03236999
H    2.27043915   0.36934987   1.24676955
H    3.76229858  -1.56461930   0.00811000
H    4.35836840   0.83759969   0.77820975
H    2.73918915   2.29323936  -0.64063972
H    2.68681908   1.16451967  -3.08520889
H    3.36502862  -1.41298950  -2.64912891

