%chk=mol_6539.chk
# wB97XD/Def2SVP opt freq pop=full gfinput

C 4 H 2 N 2 S 1

1 2
C    0.87981969   0.12972996  -0.00001000
C    2.07868910   0.05982998   0.00024000
C    3.50156856  -0.01976999   0.00053000
N    4.25652838   1.05903959   0.00087000
N    5.60534763   0.75222969   0.00111000
C    5.80747747  -0.54731983   0.00093000
S    4.37932825  -1.49524951   0.00046000
H   -0.18402994   0.20033991  -0.00023000
H    6.79747772  -0.98170966   0.00106000

