%chk=mol_5846.chk
# wB97XD/Def2SVP opt pop=full gfinput

C 4 H 8 N 2 O 1

1 2
N    1.741080   0.295005  -0.563686
C    4.016424   0.158548   0.661499
O    4.471735  -1.705119   1.977050
C    5.820527   2.396815   0.209854
C    4.806103   5.116452   0.458958
N    7.222420   5.851121   1.660994
C    7.571339   3.172472   2.410308
H    1.238073   1.734655  -1.709654
H    0.522037  -1.158572  -0.317436
H    6.887315   2.123523  -1.554810
H    3.169468   5.332807   1.711506
H    4.403383   6.084181  -1.323167
H    8.554506   6.462145   0.405989
H    9.519061   2.490924   2.285832
H    6.842415   2.751347   4.304059

