%chk=mol_3989.chk
# wB97XD/Def2SVP opt freq pop=full gfinput

C 5 H 11 N 1 O 1

1 2
C    0.84794968   0.23345990  -0.32692987
C    2.28149891   0.09064997   0.12544996
C    2.49131894   0.16503994   1.62173951
N    1.92680931  -1.02231956   2.25862932
C    3.19258881  -0.81810969  -0.67427975
C    3.33652878   0.67015970  -0.79691970
O    4.50240850   1.23520958  -0.18179993
H    0.76622975   0.27746990  -1.41891944
H    0.40997985   1.15269959   0.07632997
H    0.24426991  -0.61530977   0.01051000
H    2.02044916   1.06742966   2.02630925
H    3.55465865   0.21004993   1.87716937
H    0.91369963  -1.00346959   2.16414905
H    2.11581922  -0.97407961   3.25837874
H    2.76987886  -1.36236954  -1.50983953
H    3.95349836  -1.37175953  -0.13599995
H    3.00545883   1.12480962  -1.72602940
H    5.30082798   1.03122962  -0.69921976

