%chk=mol_1215.chk
# wB97XD/Def2SVP opt pop=full gfinput

C 5 H 10 N 2

1 2
C    1.867843   0.217942  -0.324617
C    4.668720  -0.174554   0.010696
C    5.450140  -2.903451   0.146888
C    6.216670   1.834603   0.235195
C    9.023423   1.790497   0.454989
N   10.495369  -0.104483  -0.453553
N   10.224099   3.675593   1.460777
H    1.361378   2.220617  -0.446523
H    0.830572  -0.596095   1.269990
H    1.224127  -0.696723  -2.065792
H    4.039894  -4.002856   1.190754
H    7.235100  -3.184132   1.143813
H    5.604890  -3.699479  -1.755990
H    5.418657   3.726351   0.244153
H    9.866771  -0.945203  -2.050995
H   12.330331   0.439758  -0.553236
H    8.984571   5.014010   2.103983

