%chk=mol_1778.chk
# wB97XD/Def2SVP opt pop=full gfinput

C 5 H 6 N 2

1 2
C    1.915086  -0.118996  -0.532298
N    4.576010   0.016365   0.170586
C    5.594912   2.618556   0.000000
C    4.548627   4.193189   2.059726
C    3.697117   5.475425   3.730263
C    8.323677   2.618556   0.000000
N   10.498771   2.618556   0.000000
H    1.288982  -2.088752  -0.442045
H    1.603924   0.550288  -2.465337
H    0.715148   0.958809   0.761465
H    5.583291  -1.112123  -1.025063
H    4.989444   3.434955  -1.809885
H    2.950146   6.599037   5.225698

