%chk=mol_4931.chk
# wB97XD/Def2SVP opt freq pop=full gfinput

C 4 H 6 N 2 O 1

1 2
C    1.09628963  -0.19298993   0.22182992
C    2.49182892  -0.22148992  -0.33887988
O    2.85290909  -1.05169964  -1.16579962
N    3.32970881   0.74012971   0.16712993
C    4.72418833   0.77362972  -0.23514992
C    5.43097782   1.93327928   0.32811987
N    5.96385813   2.85204911   0.79569972
H    0.88394964   0.75625968   0.72157973
H    0.98265964  -1.00864959   0.94059968
H    0.37957987  -0.31718990  -0.59466976
H    3.02940893   1.30669951   0.95161968
H    4.76765823   0.79050970  -1.32958961
H    5.19114780  -0.15858994   0.10118996

