%chk=mol_1803.chk
# wB97XD/Def2SVP opt pop=full gfinput

C 5 H 12 N 2

1 2
C    2.393206  -0.455934   0.690071
N    5.084119   0.121434   0.795707
C    5.618420   2.835043   0.440873
C    4.625710   4.509094   2.656879
N    5.098273   7.225066   2.309397
C    8.462118   3.065759   0.209684
C    9.673829   4.030824  -1.795070
H    2.140682  -2.508668   0.715772
H    1.519075   0.263144  -1.040426
H    1.384659   0.289582   2.331657
H    5.954489  -0.828739  -0.640731
H    4.734142   3.473411  -1.326267
H    5.494058   3.905591   4.439836
H    2.580856   4.276904   2.861763
H    6.990834   7.498452   2.063033
H    4.629489   8.149898   3.931046
H    9.565378   2.384778   1.805898
H    8.654133   4.739603  -3.426584
H   11.720251   4.133757  -1.832713

