%chk=mol_6804.chk
# wB97XD/Def2SVP opt freq pop=full gfinput

C 5 H 8 N 2

1 2
C    0.88868970   0.00655000   0.10007996
C    2.23020911   0.01058000  -0.01167999
C    2.99729896   1.28996956  -0.11919995
N    4.33724833   1.09230959   0.37501985
C    4.97625828  -0.04559999  -0.00776000
N    4.44191837  -1.17650950  -0.26795989
C    3.00045896  -1.28400958  -0.02445999
H    0.31253991   0.92655963   0.10937995
H    0.33386987  -0.92438966   0.17719993
H    2.51843905   2.08940911   0.45709983
H    3.04092884   1.60788941  -1.16734958
H    4.90288830   1.93323922   0.35785985
H    6.06758785   0.08580997  -0.10276996
H    2.58409905  -1.93744922  -0.80026966
H    2.86167908  -1.79421937   0.93691969

