%chk=mol_5687.chk
# wB97XD/Def2SVP opt pop=full gfinput

C 5 H 11 N 1 O 1

1 2
N    1.648332   0.130070  -0.102291
C    4.390136  -0.135474  -0.228884
C    5.700076   2.388047   0.307610
C    8.518734   2.157557   0.088439
C   10.217296   3.758703   1.718328
C   10.023277   0.964592   2.186489
O   12.122499  -0.552896   1.397471
H    0.830062  -1.571950  -0.481219
H    1.049629   1.333315  -1.481829
H    4.928802  -0.838755  -2.101432
H    4.995888  -1.551560   1.154056
H    5.167475   3.061867   2.196844
H    5.054885   3.821990  -1.044300
H    9.107233   1.801722  -1.842218
H    9.365974   5.007510   3.101456
H   11.933715   4.503954   0.886452
H    9.015241   0.357725   3.868704
H   13.222735   0.329039   0.220531

