%chk=mol_5157.chk
# wB97XD/Def2SVP opt freq pop=full gfinput

C 4 H 7 N 1 O 2

1 2
C    2.33108926  -0.71168971  -1.30819952
N    2.87051892  -0.39475986   0.00928000
C    3.53155875   0.92625970   0.03239999
C    4.92085838   0.87621969  -0.57987976
O    5.51253796  -0.13306995  -0.94589961
C    5.63704824   2.19791913  -0.69967979
O    5.12725830   3.23416901  -0.30916989
H    1.83825934  -1.68829942  -1.27053952
H    3.11198878  -0.76136971  -2.07308912
H    1.57855940   0.02250999  -1.61321938
H    3.56243873  -1.10761952   0.25645989
H    3.64354849   1.22962952   1.07849967
H    2.91949892   1.67486930  -0.48159984
H    6.63584757   2.13236928  -1.15909958

