%chk=mol_5341.chk
# wB97XD/Def2SVP opt pop=full gfinput

C 5 H 11 N 1 O 1

1 2
C    1.965032   0.957732   1.797337
O    4.645136   1.017617   1.646292
C    5.492338   2.852920  -0.131790
C    8.314965   2.762099  -0.153578
C    9.818034   4.758765   0.293456
C   12.636768   4.658288   0.298539
N   13.608598   6.434631  -1.561500
H    1.424249  -0.454479   3.204692
H    1.150824   0.418952  -0.025511
H    1.228643   2.796379   2.391316
H    4.794783   4.727150   0.405875
H    4.776869   2.379562  -2.016187
H    9.142873   0.925115  -0.555901
H    8.982511   6.588644   0.720194
H   13.337819   2.756487  -0.120413
H   13.330714   5.182687   2.175642
H   13.061409   5.849364  -3.313049
H   15.531338   6.351218  -1.553582

