%chk=mol_6048.chk
# wB97XD/Def2SVP opt freq pop=full gfinput

C 6 H 13 N 1

1 2
C    0.99022961  -0.07957997   0.09606996
C    2.50239921  -0.00422000   0.01539999
C    3.18364882   1.08981955   0.87661970
C    4.21653843  -0.00900000   1.23092949
C    5.49177790   0.02239999   0.39723983
N    3.16662884  -1.00529957   0.88599968
C    3.63426852  -2.15483904   0.12788995
H    0.61885977  -0.97490966  -0.41283983
H    0.53902978   0.79060972  -0.39218983
H    0.63367975  -0.10448996   1.13138950
H    2.84974909   0.01122000  -1.02751970
H    2.59321904   1.43228948   1.73554933
H    3.55685878   1.96244919   0.33343986
H    4.47328806  -0.02409999   2.29768920
H    5.29478788   0.09732997  -0.67748976
H    6.10332727  -0.86778969   0.57877976
H    6.09715748   0.89219970   0.67554975
H    2.78297901  -2.79799891  -0.12172996
H    4.31923866  -2.75585914   0.73605973
H    4.13725853  -1.90459931  -0.81243968

