%chk=mol_7155.chk
# wB97XD/Def2SVP opt pop=full gfinput

C 6 H 13 N 1

1 2
C    4.460944  -1.315590   2.729501
C    4.911701  -0.319042   0.073095
C    6.013298   2.296924   0.112949
C    8.476159   2.944345  -0.022488
C   10.619070   1.073856  -0.187763
C    9.260093   5.688057  -0.055690
N   10.821554   6.302615   2.121917
H    3.614725  -3.200346   2.651475
H    3.179294  -0.080994   3.785858
H    6.236248  -1.455940   3.784460
H    3.110244  -0.253696  -0.950211
H    6.105346  -1.636881  -0.983470
H    4.608343   3.796649   0.247762
H    9.992343  -0.892952  -0.168110
H   11.908865   1.299810   1.414819
H   11.688183   1.368955  -1.934475
H    7.610645   6.942060  -0.069788
H   10.317904   6.074732  -1.793312
H    9.787950   6.010123   3.719775
H   11.236954   8.179547   2.086314

