%chk=mol_5405.chk
# wB97XD/Def2SVP opt pop=full gfinput

C 4 H 9 N 1 O 2

1 2
C    2.127869  -0.654941  -0.751601
O    4.783993  -0.309575  -0.550855
C    5.446493   2.305050  -0.547473
C    8.297447   2.586657  -0.287371
O    8.918203   5.213037  -0.301166
N   11.544942   5.458965  -0.036264
C   12.113258   7.826849  -0.062134
H    1.734901  -2.683146  -0.773616
H    1.418561   0.174705  -2.508007
H    1.165413   0.186403   0.873885
H    4.501195   3.273459   1.022323
H    4.811337   3.195886  -2.307752
H    9.255331   1.626601  -1.854275
H    8.939859   1.717308   1.480808
H   14.098529   8.420412   0.124552
H   10.688650   9.335549  -0.266414

