%chk=mol_5987.chk
# wB97XD/Def2SVP opt freq pop=full gfinput

C 4 H 5 N 1 O 2

1 2
O    0.91744965  -0.15122995   0.04188998
C    2.14841938  -0.10181996   0.01053000
C    2.82235909   1.22859955  -0.05371998
C    4.31732845   1.23730946  -0.04133998
C    4.91307831  -0.11256996   0.00338000
N    4.28152847  -1.23428965   0.02723999
O    2.87764907  -1.24137950   0.01298000
H    2.45687914   1.81880927   0.79543972
H    2.46985912   1.72543943  -0.96539968
H    4.69505835   1.79845929   0.82116967
H    4.70950794   1.74791932  -0.92920971
H    6.01576757  -0.15595995   0.01693999

