%chk=mol_3682.chk
# wB97XD/Def2SVP opt freq pop=full gfinput

C 5 H 8 O 2

1 2
O    3.00188899   3.13598871  -1.08202958
C    2.36433911   2.28663921  -0.46825984
C    2.98020887   1.09479964   0.20907992
C    4.48363829   1.00692964   0.02753999
C    5.36002827   2.00542927   0.80002970
C    6.08482742   0.76169968   1.30431950
O    5.02916813  -0.09836996   0.80567974
H    1.26733959   2.36478901  -0.37668985
H    2.50159907   0.20294993  -0.21001992
H    2.71544909   1.14652956   1.27100945
H    4.77336836   0.89267969  -1.02547956
H    4.84710836   2.57386899   1.58110940
H    5.95977783   2.67756891   0.18196994
H    7.03862715   0.53975976   0.81636965
H    6.19198751   0.68968970   2.38963914

