%chk=mol_6713.chk
# wB97XD/Def2SVP opt freq pop=full gfinput

C 3 H 5 N 1 O 2 S 1

1 2
O    0.98350960   0.02576999  -0.13988994
S    2.42668915   0.02884999  -0.16437994
O    3.18694878   0.02590999  -1.39213943
N    2.96718884  -1.31841946   0.71974975
C    3.39259863  -0.87728971   2.06660914
C    3.49240875   0.62130976   2.02610922
C    3.03207874   1.22001946   0.91958970
H    3.71050858  -1.76754928   0.18310994
H    4.36556864  -1.31647956   2.30432916
H    2.65465903  -1.19217956   2.80974889
H    3.90647864   1.17172956   2.86093903
H    3.00331879   2.27190924   0.69502974

