%chk=mol_5289.chk
# wB97XD/Def2SVP opt freq pop=full gfinput

C 4 H 7 N 1 O 2

1 2
C    1.74374926  -0.52757984  -1.26316953
O    1.95292926   0.20617992  -0.06621998
C    3.04271889   1.15971947  -0.10393997
C    2.72845888   2.55646896  -0.69798970
N    3.32237887   3.14328885   0.50771981
C    3.27590871   1.97140932   1.20474958
O    3.35537863   1.78751934   2.39470911
H    0.90995967  -1.21701956  -1.10908961
H    2.63908911  -1.10422957  -1.51298952
H    1.49649954   0.15239994  -2.08329916
H    3.97164845   0.70199978  -0.46628982
H    1.66818941   2.80318880  -0.80843973
H    3.27433872   2.80840874  -1.60987937
H    3.04775882   3.97845864   1.00910962

