%chk=mol_6921.chk
# wB97XD/Def2SVP opt freq pop=full gfinput

C 6 H 9 N 1

1 2
C    1.07369959  -0.14729995  -0.36003986
C    2.40251923   0.00457000  -0.32262987
C    3.09064889   1.26069951  -0.19872992
C    4.41700840   1.40571940  -0.14059994
C    4.78600836   2.83561897   0.00448000
N    3.53132868   3.59430861  -0.14268996
C    2.43574905   2.60038900  -0.10036996
H    0.63849980  -1.13741958  -0.45353982
H    0.38550985   0.68814975  -0.29672989
H    3.02465868  -0.88684970  -0.38733983
H    5.14293814   0.60667980  -0.17003994
H    5.22563791   3.02273870   0.98922962
H    5.50565767   3.13737893  -0.76320970
H    3.52941871   4.01069832  -1.07266963
H    1.74507940   2.77914906  -0.93137968
H    1.88775933   2.70098901   0.84256965

