%chk=mol_2139.chk
# wB97XD/Def2SVP opt pop=full gfinput

C 5 H 8 N 2

1 2
N    2.334076  -0.253526   0.079255
N    4.865950   0.118070   0.114933
C    5.657557   2.453356   0.085378
C    3.995769   4.752585   0.184003
C    4.631208   7.050436  -0.672724
C    8.434132   2.979720   0.100061
C   10.080234   1.339324  -0.900606
H    1.973630  -2.136203   0.326753
H    1.623313   0.165294  -1.668987
H    2.124732   4.443710   0.966444
H    6.439128   7.453685  -1.547005
H    3.288936   8.597026  -0.551082
H    9.079359   4.716246   0.971697
H    9.457796  -0.417422  -1.761111
H   12.093605   1.718158  -0.864852

