%chk=mol_2092.chk
# wB97XD/Def2SVP opt pop=full gfinput

C 5 H 8 N 2

1 2
N    6.390808  -2.133028  -4.360146
C    6.597072  -1.187580  -2.385326
C    6.786139  -0.008542   0.139141
N    8.371619   2.276572   0.140860
C    6.992648   4.466330  -0.963382
C    8.104695   6.078607   1.190735
C    8.251508   3.557296   2.638587
H    7.637933  -1.389818   1.429483
H    4.874360   0.363772   0.855082
H    4.921999   4.353910  -0.925815
H    7.600705   5.001878  -2.864976
H    9.949276   6.916435   0.757497
H    6.863466   7.522055   1.988918
H    9.933440   3.314693   3.815187
H    6.568839   3.160907   3.784536

