%chk=mol_5850.chk
# wB97XD/Def2SVP opt freq pop=full gfinput

C 4 H 8 N 2 O 1

1 2
N    1.05319953  -0.16678993  -0.47175983
C    2.40985918  -0.30159989  -0.55611980
O    2.91752911  -0.97703964  -1.44342947
C    3.18214869   0.43094984   0.52249980
C    4.66589832   0.26224989   0.39686987
C    5.50559807   1.30441952  -0.29419988
N    5.54355764   1.15341961   1.15881956
H    0.59536982   0.38797984   0.23787990
H    0.48821983  -0.63663977  -1.16698956
H    2.86092877   0.03430999   1.49293947
H    2.90158892   1.49084938   0.48254982
H    4.97062826  -0.77656972   0.33780986
H    5.02973843   2.20394897  -0.66485977
H    6.38149738   0.98054963  -0.84320968
H    6.39283752   0.66272974   1.44747949

