%chk=mol_4294.chk
# wB97XD/Def2SVP opt pop=full gfinput

C 5 H 8 N 2

1 2
C    1.780821  -2.170823   1.677926
C    2.229140  -0.664428  -0.676541
C    1.804405   2.127529  -0.816777
C   -0.478384   2.947481   0.745138
N   -2.704633   1.356899   0.280794
C   -2.251703  -0.978349  -0.234609
N   -0.004327  -2.299891  -0.451021
H    2.821267  -3.911469   1.934191
H    1.031828  -1.313341   3.373010
H    3.598738  -1.347261  -2.032627
H    3.496674   3.135490  -0.181414
H    1.494282   2.640873  -2.801047
H   -0.039457   2.921290   2.769488
H   -0.952138   4.905691   0.267831
H   -3.867797  -2.228289  -0.646702

