%chk=mol_2912.chk
# wB97XD/Def2SVP opt freq pop=full gfinput

C 6 H 8 O 1

1 2
C    0.78121972   0.01852999   0.09462997
C    2.26551914   0.00348000   0.26624990
C    3.08998895   0.93834960  -0.23902990
C    4.58846855   0.99658966  -0.10136996
O    5.08290815  -0.15760994   0.56272984
C    5.20847797   1.09103966  -1.43080950
C    5.72198772   1.16504955  -2.51533890
H    0.45589983  -0.89563966  -0.41116986
H    0.44059983   0.87490970  -0.49576980
H    0.29365990   0.06289998   1.07323956
H    2.66837907  -0.81932968   0.85312968
H    2.65472913   1.76470935  -0.79952973
H    4.85685778   1.86964929   0.50232983
H    4.94151831  -0.89680964  -0.05203998
H    6.18013763   1.23037958  -3.47487879

