%chk=mol_6191.chk
# wB97XD/Def2SVP opt pop=full gfinput

C 5 H 7 N 1 O 1

1 2
O    2.242878   0.564310   0.060320
C    4.828402  -0.147531  -0.065309
C    5.312266  -1.472153  -2.451391
C    5.693972  -2.573977  -4.400189
C    6.433950   2.190004  -0.177181
C    6.889564   3.722005   2.190476
N    8.923552   2.264005   1.046625
H    1.992168   1.276793   1.731121
H    5.275605  -1.349756   1.559478
H    6.022822  -3.552855  -6.128760
H    6.210906   3.243035  -1.924006
H    6.198604   3.021200   3.984431
H    7.014059   5.758524   2.029169
H   10.125587   3.391132   0.037965

