%chk=mol_1504.chk
# wB97XD/Def2SVP opt freq pop=full gfinput

C 6 H 11 N 1

1 2
C    0.82463968  -0.41816983   0.11833996
C    2.31792903  -0.13915995  -0.06206998
N    2.90885878  -1.15923965  -0.92773968
C    2.67872906   1.20876956  -0.62431979
C    1.83967936   2.18866920  -0.99755961
C    2.30176902   3.45176888  -1.52279949
C    1.47132945   4.42922831  -1.90400934
H    0.37036988   0.30907986   0.80056971
H    0.66374975  -1.41261947   0.55040979
H    0.28266990  -0.37814987  -0.83364969
H    2.79512882  -0.21860991   0.92214966
H    2.44986916  -1.12429953  -1.83753932
H    2.70390892  -2.08214927  -0.54905975
H    3.75221848   1.37581944  -0.71535975
H    0.76403970   2.05598927  -0.91709965
H    3.37548876   3.60574865  -1.61045933
H    0.39244986   4.33003807  -1.84073925
H    1.86369932   5.36288834  -2.29481912

