%chk=mol_5674.chk
# wB97XD/Def2SVP opt freq pop=full gfinput

C 4 H 9 N 1 O 2

1 2
N    0.89129966   0.48922983   0.29741991
C    2.12181926   0.53415978  -0.48356980
C    3.13622880   1.32880950   0.26544991
O    3.93753839   2.20577931  -0.54674983
C    3.02967882   2.83004904   0.37028986
C    3.67130852   3.55855870   1.49885941
O    3.66562867   4.95111847   1.22241950
H    0.20901993  -0.08626997  -0.19714993
H    0.48297983   1.42363954   0.33301985
H    1.91815925   0.96264964  -1.47014940
H    2.49532914  -0.48385984  -0.63326979
H    3.61827874   0.77503967   1.05927956
H    2.14660931   3.32002854  -0.01574999
H    4.70484829   3.24029875   1.66481936
H    3.10966897   3.39177871   2.42153907
H    4.18072844   5.07288790   0.40600985

