%chk=mol_0423.chk
# wB97XD/Def2SVP opt freq pop=full gfinput

C 5 H 11 N 1

1 2
C    2.34664917  -0.44866985  -1.38132942
C    2.41638899   0.15878993   0.01315999
N    3.29907894   1.32787955   0.02233999
C    2.60377908   2.53508925  -0.50224984
C    3.25930858   3.32544875   0.64455974
C    3.29943871   1.96460927   1.36669958
H    1.73092937  -1.35435951  -1.36584949
H    3.34292865  -0.72716975  -1.74220932
H    1.90224934   0.24639989  -2.10090923
H    2.82606912  -0.59763980   0.69396979
H    1.40213943   0.38762987   0.36479989
H    1.50687945   2.51985908  -0.45320985
H    2.90833879   2.83670902  -1.50868952
H    4.24728823   3.73353863   0.40156984
H    2.64836907   4.10247850   1.10949957
H    4.19907856   1.77890933   1.96014929
H    2.41679907   1.77299929   1.98946929

