%chk=mol_3214.chk
# wB97XD/Def2SVP opt pop=full gfinput

C 6 H 14 O 1

1 2
C    4.175596   1.429635   0.189464
C    6.493817   2.777935   1.205853
O    8.600937   2.056230  -0.302866
C   11.010262   3.120108   0.342305
C   11.848620   2.325478   2.998447
C   12.866465   2.011651  -1.592642
C   11.006143   6.004888   0.082808
H    2.496838   1.921001   1.289360
H    4.439950  -0.620983   0.253204
H    3.849259   1.934758  -1.789778
H    6.787424   2.226305   3.175704
H    6.189666   4.819368   1.099102
H   10.683812   3.212213   4.462739
H   13.814824   2.862822   3.364619
H   11.668246   0.276996   3.247457
H   12.296353   2.500826  -3.523281
H   12.883511  -0.057618  -1.494452
H   14.796575   2.695203  -1.289171
H   10.223513   6.580310  -1.746655
H   12.917185   6.783777   0.256020
H    9.840673   6.899598   1.541733

