%chk=mol_6030.chk
# wB97XD/Def2SVP opt freq pop=full gfinput

C 4 H 6 N 2 O 1

1 2
O    0.84067971  -0.03327999   0.25442991
C    2.27096915  -0.00642000  -0.00689000
C    3.07972884   1.04462957   0.79232967
N    3.80629849  -0.01519999   1.50092947
C    3.11122870  -1.06551957   0.74795967
C    2.51875901   0.02743999  -1.44111943
N    2.75796914   0.05488998  -2.57608891
H    0.77093971  -0.05472998   1.22527957
H    2.47587919   1.66955936   1.46048939
H    3.72086883   1.71096933   0.20413992
H    4.81822824   0.00306000   1.35143960
H    3.77160859  -1.68712938   0.13269995
H    2.52672887  -1.73571932   1.38888943

