%chk=mol_6835.chk
# wB97XD/Def2SVP opt pop=full gfinput

C 5 H 8 N 2

1 2
C    1.973006  -0.018217  -0.087816
C    4.788301  -0.005480  -0.073832
N    6.179953  -1.156796  -2.154137
C    6.257885   1.602091  -1.928919
C    8.638675   2.880604  -1.073081
C    9.902241   3.701596  -3.400959
N   10.891985   4.410092  -5.225773
H    1.254381   1.480374   1.143322
H    1.263301  -1.827025   0.621512
H    1.194080   0.281872  -1.981680
H    5.560028  -0.325732   1.796808
H    5.004373  -1.697031  -3.590612
H    5.178417   2.690365  -3.294038
H    9.855281   1.613580   0.021486
H    8.172102   4.511211   0.111437

