%chk=mol_2173.chk
# wB97XD/Def2SVP opt freq pop=full gfinput

C 6 H 10 O 1

1 2
C   -1.21321952  -0.00155000   1.00394964
C   -0.61821979  -1.01167965   0.00131000
C    0.87287968  -1.27295947   0.21849991
C    1.66773927  -0.00030000  -0.10187996
C    0.87350971   1.27144957   0.22248992
C   -0.61723977   1.01155961   0.00405000
O   -0.80946964   0.00212000  -1.05597961
H   -0.79817969  -0.00307000   2.01420927
H   -2.30687928  -0.00110000   1.05281961
H   -1.22815955  -1.90487921  -0.15987994
H    1.05112958  -1.58297932   1.25410962
H    1.21712959  -2.08822918  -0.42701983
H    1.88136923   0.00130000  -1.17978954
H    2.63991904  -0.00151000   0.40208983
H    1.21827960   2.08881927  -0.42049983
H    1.05211961   1.57839942   1.25922954
H   -1.22703946   1.90612924  -0.15379994

