%chk=mol_6910.chk
# wB97XD/Def2SVP opt freq pop=full gfinput

C 6 H 13 N 1

1 2
C    0.54795980   0.27964991   0.37013987
C    1.80488932   0.07519998  -0.46334985
C    2.91833901   1.03682959  -0.08948997
C    3.60134864   0.82235968   1.25182950
C    4.26178837  -0.54470974   1.37228942
C    3.74848866   1.62901938  -1.21457946
N    2.74398899   2.43086910  -0.53577983
H   -0.22199993  -0.44061983   0.07376997
H    0.14082994   1.28654957   0.22795992
H    0.74477971   0.14183995   1.43638957
H    1.53900933   0.19274992  -1.52097940
H    2.14990926  -0.95821965  -0.35551986
H    2.87798882   0.95291966   2.06401920
H    4.37597799   1.58497941   1.40666950
H    3.51332879  -1.34189951   1.42960954
H    4.86538839  -0.59286976   2.28289914
H    4.91075802  -0.74837971   0.51606983
H    3.51941872   1.35442960  -2.23754930
H    4.78285837   1.89425921  -1.03618968
H    3.17192888   3.08550882   0.12208995

