%chk=mol_3248.chk
# wB97XD/Def2SVP opt pop=full gfinput

C 5 H 10 O 2

1 2
C    2.575451  -0.674746  -0.075287
C    5.418979  -0.260952   0.148627
O    6.628536  -1.639205  -1.841973
C    6.236966   2.519062  -0.020560
C    4.772315   4.261200   1.753515
C    9.049596   2.641988   0.551951
O   10.004910   4.026666   2.148864
H    1.552996   0.112892   1.538936
H    2.149337  -2.698340  -0.181829
H    1.837570   0.179486  -1.811265
H    6.078739  -1.089748   1.928938
H    5.655384  -1.414403  -3.387448
H    6.024088   3.198758  -1.968320
H    4.883374   3.601402   3.712915
H    2.778729   4.380423   1.217267
H    5.535575   6.185527   1.699450
H   10.262007   1.443165  -0.651162

