%chk=mol_4797.chk
# wB97XD/Def2SVP opt pop=full gfinput

C 4 H 10 N 2 O 1

1 2
C    2.322814   0.703507  -0.276939
C    5.146574   0.672289  -0.174006
N    6.424200   2.749457  -0.253337
O    9.008419   2.163831  -0.103538
C   10.406759   4.475892  -0.018293
C   13.220845   3.836711   0.141540
N   14.829740   6.084370   0.216600
H    1.697900  -0.443103  -1.877443
H    1.609877   2.631122  -0.482258
H    1.582532  -0.128747   1.461779
H    6.068591  -1.193173  -0.012416
H    9.817883   5.571253   1.639942
H   10.011127   5.574522  -1.731084
H   13.756715   2.656501  -1.474213
H   13.568819   2.692293   1.831768
H   14.604824   7.094221  -1.409528
H   16.677155   5.538032   0.257872

