%chk=mol_4722.chk
# wB97XD/Def2SVP opt pop=full gfinput

C 4 H 8 N 2 O 1

1 2
C    4.950497  -2.084897  -0.448715
C    7.209589  -0.554635   0.442895
N    6.903113   2.039506  -0.440703
C    8.585669   3.666333   0.214616
N   10.736384   3.272628   1.618078
C    8.124330   6.353940  -0.733441
O    9.826538   7.913266  -0.621947
H    5.110632  -4.048285   0.181867
H    4.820502  -2.074692  -2.515074
H    3.184699  -1.303420   0.297594
H    8.934757  -1.394108  -0.333442
H    7.298746  -0.624668   2.510331
H   11.508017   1.529318   1.501954
H   12.030809   4.690470   1.441143
H    6.221073   6.708282  -1.494962

