%chk=mol_3300.chk
# wB97XD/Def2SVP opt pop=full gfinput

C 6 H 12 O 1

1 2
C    3.797121  -1.026443  -1.631098
O    3.440643   1.315023  -0.365416
C    5.780710   2.635034   0.086701
C    6.513376   4.566070  -1.865689
C    5.563807   5.427766   0.686840
C    2.982536   6.626098   0.817741
C    7.448091   6.529042   2.515207
H    1.946834  -1.890841  -1.941391
H    4.940859  -2.299324  -0.470939
H    4.706703  -0.723954  -3.462923
H    7.287861   1.597707   1.019129
H    5.291649   4.793933  -3.493933
H    8.503843   4.775092  -2.297435
H    1.713793   5.927655  -0.658702
H    3.131711   8.676451   0.589576
H    2.108254   6.238610   2.651229
H    9.301175   5.622275   2.358851
H    6.784684   6.287856   4.459319
H    7.700823   8.550614   2.157840

