%chk=mol_3794.chk
# wB97XD/Def2SVP opt freq pop=full gfinput

C 5 H 4 O 2

1 2
O    2.73482895  -1.04786956   0.83275974
C    2.20613933   0.02082999   0.56727982
O    2.80907893   1.21099949   0.27353990
C    4.20612860   1.20325959   0.27688992
C    4.90810776   2.30625892   0.00000000
C    6.31410789   2.30625892   0.00000000
C    7.50426722   2.30625892   0.00000000
H    1.11594963   0.17226994   0.52794981
H    4.66084814   0.24973992   0.51690978
H    4.39403868   3.23319864  -0.23358990
H    8.56951714   2.30383921   0.00060000

