%chk=mol_0280.chk
# wB97XD/Def2SVP opt pop=full gfinput

C 5 H 11 N 1

1 2
C    1.783788  -0.040270   0.111853
C    4.642944  -0.001984  -0.022903
C    6.020120   1.946399   1.656269
N    7.833633  -0.031729   2.438918
C   10.100869   0.043124   0.857520
C    6.071955  -2.008609   1.542565
H    1.031620  -1.680174  -0.899812
H    0.993920   1.661126  -0.759783
H    1.109364  -0.129522   2.065716
H    5.283107   0.064364  -1.997951
H    4.888533   2.657352   3.241372
H    6.806245   3.582297   0.660270
H   11.289110  -1.604037   1.259049
H   11.219493   1.725263   1.311281
H    9.711303   0.066726  -1.177394
H    6.900089  -3.563362   0.454800
H    4.960569  -2.838860   3.083372

