%chk=mol_2051.chk
# wB97XD/Def2SVP opt pop=full gfinput

C 6 H 9 N 1

1 2
N    1.884718  -0.534471  -0.017915
C    4.598346  -0.048642  -0.054027
C    5.308165   2.720884   0.030481
C    3.636702   4.636367   0.175461
C    8.122458   3.250178   0.053158
C    9.310926   2.485840  -2.341598
C   10.298667   1.845884  -4.281118
H    1.598141  -2.436821  -0.056352
H    1.131644   0.140369  -1.656798
H    5.379993  -0.921223  -1.760903
H    5.447117  -1.002764   1.576277
H    1.612976   4.305079   0.238294
H    4.242775   6.593765   0.269891
H    8.994473   2.238286   1.636919
H    8.492429   5.264153   0.377756
H   11.175444   1.272164  -6.002091

