%chk=mol_6268.chk
# wB97XD/Def2SVP opt freq pop=full gfinput

C 4 H 5 N 1 O 2

1 2
O    2.94124889  -0.24384990   2.17238927
C    3.15016890   0.95514965   2.09612918
C    3.91143870   1.57996941   0.94552964
O    3.55911851   2.67096901   0.52222979
N    5.01098776   0.83125967   0.54111981
C    6.22032738   1.48905933   0.13119994
C    5.37527800   0.75792974  -0.84521973
H    2.80609894   1.68823934   2.84404898
H    7.11526728   1.01957965   0.51305979
H    6.19483757   2.57122898   0.14046994
H    4.74814796   1.31941950  -1.52492940
H    5.66971779  -0.23284991  -1.15993953

