%chk=mol_4204.chk
# wB97XD/Def2SVP opt pop=full gfinput

C 4 H 3 N 1 O 2

1 2
C    2.152587  -0.034223   0.101119
C    4.650805  -0.044201  -0.271705
O    6.015943  -2.191402  -0.819310
C    8.330366  -1.078297  -0.984434
N    8.621573   1.311848  -0.643905
C    6.267239   2.219748  -0.148344
O    5.617003   4.377910   0.294759
H    1.156890   1.708974   0.529010
H    1.061459  -1.764003  -0.014494
H    9.838462  -2.437350  -1.426743

