%chk=mol_5291.chk
# wB97XD/Def2SVP opt pop=full gfinput

C 5 H 11 N 1 O 1

1 2
C    3.714219  -1.086139  -2.467151
O    4.209063   0.023716  -0.074115
C    5.851424   2.210734  -0.101100
C    4.726526   4.735200  -1.050650
N    5.824514   6.063470   1.148897
C    8.265133   7.185892   0.495921
C    6.184223   3.607638   2.441262
H    2.486974  -2.723662  -2.190816
H    5.480168  -1.710750  -3.339278
H    2.756940   0.268379  -3.698742
H    7.674234   1.747241  -0.981335
H    2.654725   4.773675  -1.062121
H    5.379748   5.348530  -2.916868
H    9.203250   7.872372   2.209506
H    7.976553   8.823547  -0.737182
H    9.560616   5.884531  -0.463644
H    8.007204   3.320343   3.379114
H    4.692568   3.196906   3.820138

