%chk=mol_4662.chk
# wB97XD/Def2SVP opt pop=full gfinput

C 5 H 11 N 1 O 1

1 2
C    4.404404  -0.904196  -2.603173
C    4.559304   0.267642   0.021656
N    6.238723   2.469078   0.006822
C    4.920110   4.749467  -0.994903
C    6.205898   6.274987   1.150560
O    8.635198   7.386561   0.563497
C    6.256279   3.697400   2.541757
H    3.232509  -2.608389  -2.550545
H    6.279655  -1.445433  -3.291563
H    3.562568   0.402172  -3.968708
H    5.334640  -1.153999   1.315986
H    2.649112   0.716339   0.694229
H    2.849102   4.742740  -0.880197
H    5.478883   5.277760  -2.914392
H    4.987044   7.693982   2.033326
H    9.562411   5.989109  -0.203769
H    7.958241   3.321855   3.654239
H    4.591600   3.364960   3.734269

