%chk=mol_3862.chk
# wB97XD/Def2SVP opt pop=full gfinput

C 4 H 6 N 2 O 1

1 2
C    1.389081  -2.353314   1.152242
N   -1.045453  -2.862293  -0.082808
N   -2.980684  -1.158364   0.079728
C   -2.400387   1.229097   0.112231
C    0.229810   2.167176   0.103954
O    1.815913   1.213714  -1.898249
C    2.261945   0.267888   0.602747
H    2.793412  -3.728751   0.509999
H    1.174370  -2.595596   3.196245
H   -0.698783  -3.232018  -1.951199
H   -3.925793   2.643765   0.189029
H    0.523303   4.096435   0.707098
H    3.967083   0.817363   1.574482

