%chk=mol_1630.chk
# wB97XD/Def2SVP opt pop=full gfinput

C 6 H 11 N 1

1 2
C    2.073974   0.092370   0.679130
N    4.757423   0.003874   0.000794
C    5.368806  -2.422157  -1.250677
C    4.945810  -1.929429  -4.004916
C    6.929323  -0.724200  -5.652398
C    4.946868   0.859315  -4.364001
C    5.370734   2.033232  -1.824512
H    1.627659   1.885607   1.613958
H    1.626147  -1.405370   2.037408
H    0.817647  -0.117201  -0.954482
H    4.227355  -4.000418  -0.548417
H    7.357100  -2.889013  -0.902420
H    3.445765  -3.032406  -4.840949
H    8.855729  -0.636857  -4.962119
H    6.776010  -0.985719  -7.677882
H    3.447692   1.715569  -5.452238
H    7.359274   2.571671  -1.605681
H    4.230001   3.738578  -1.545550

