%chk=mol_4271.chk
# wB97XD/Def2SVP opt freq pop=full gfinput

C 6 H 11 N 1

1 2
C   -1.80558932   0.77326971   0.20478992
C   -1.62096930  -0.67652977  -0.39808986
N   -0.28529990  -0.60095978   0.21510993
C    0.91166961  -1.03757954  -0.46952981
C    1.90166926   0.07499997  -0.03076999
C    1.02405965   1.25617957   0.46993983
C   -0.29413989   0.87282968  -0.15043995
H   -2.47963905   1.43300939  -0.34674987
H   -2.03888917   0.81281966   1.27597952
H   -1.64844930  -0.73682976  -1.49219942
H   -2.28189921  -1.43769956   0.02357999
H    1.24378943  -2.02465916  -0.13525996
H    0.80736971  -1.05330956  -1.56181931
H    2.56486917  -0.26508990   0.77280974
H    2.52255917   0.38296986  -0.88004971
H    0.97751963   1.26996946   1.56428945
H    1.40005946   2.22055936   0.11905996
H   -0.21180992   1.09409964  -1.23296952

