%chk=mol_3888.chk
# wB97XD/Def2SVP opt freq pop=full gfinput

C 5 H 9 N 1 O 1

1 2
C    1.49467945   0.18322994  -0.37885988
C    2.84666872  -0.10383996   0.18801993
C    3.14686894  -1.51011944   0.61409980
O    4.38195848  -1.89695930  -0.01838999
C    5.05531788  -0.72025973  -0.50070983
C    4.06544828   0.39296985  -0.49353981
N    3.61655879   1.01972961   0.74769974
H    1.40612948   1.21644950  -0.73169971
H    0.72399968   0.02080999   0.38195986
H    1.28370953  -0.47832984  -1.22527957
H    2.37268901  -2.21954918   0.30577987
H    3.27393889  -1.58371949   1.69974935
H    5.90771770  -0.51102984   0.15314993
H    5.42614794  -0.92713970  -1.50866950
H    3.99316835   0.96121967  -1.40838945
H    4.18323851   0.71211976   1.54093945

