%chk=mol_4954.chk
# wB97XD/Def2SVP opt pop=full gfinput

C 5 H 9 N 1 O 1

1 2
C    1.504449   0.033713   0.035602
N    4.234479   0.077800   0.353454
C    5.693915  -1.547894  -1.316175
C    4.835413  -2.658674  -3.755226
O    4.782179  -0.656850  -5.596688
C    4.840401   1.733049  -4.299392
C    5.693575   1.249128  -1.661202
H    0.702525   1.786245   0.789735
H    0.713391  -1.527352   1.140412
H    0.815039  -0.172967  -1.901764
H    7.360351  -2.438880  -0.537192
H    6.147902  -4.106583  -4.429745
H    2.954228  -3.508711  -3.631543
H    6.159695   2.968060  -5.304386
H    2.963336   2.595331  -4.390250
H    7.360143   2.303085  -1.122289

