%chk=mol_2722.chk
# wB97XD/Def2SVP opt freq pop=full gfinput

C 6 H 6 O 1

1 2
C    0.91844964   0.08035997  -0.02601999
C    2.25367928   0.02306999  -0.04774998
C    3.04903865   1.19885945  -0.02677999
C    3.72884870   2.18867922  -0.00727000
C    4.54713869   3.35993862   0.02077999
C    4.72469807   4.17272854  -1.23320949
O    3.81400847   4.57301807  -0.20261993
H    0.32494986  -0.82809967  -0.04121998
H    0.38790986   1.02764964   0.00813000
H    2.76001906  -0.93699968  -0.08086997
H    5.33851814   3.39158869   0.76034975
H    4.30144882   3.80915856  -2.16130900
H    5.63563824   4.74649858  -1.34611952

