%chk=mol_3632.chk
# wB97XD/Def2SVP opt freq pop=full gfinput

C 7 H 14

1 2
C    1.90835929  -0.21892992  -1.39324951
C    2.27103925   0.22964992   0.01579999
C    2.96149898   1.57884943   0.02282999
C    2.04754925   2.78446889   0.04159999
C    1.67539930   3.19321871   1.45968938
C    4.30814838   1.64642942   0.01183000
C    5.16261768   2.87386894   0.03352999
H    1.39792943  -1.18622959  -1.36059940
H    2.80486894  -0.33280990  -2.01179934
H    1.24399960   0.49749982  -1.88502932
H    2.91554904  -0.53070980   0.47619981
H    1.36752951   0.26971990   0.63630974
H    1.13437951   2.56610894  -0.52468979
H    2.50833893   3.63393855  -0.47333983
H    1.15115952   2.38732910   1.98450935
H    1.01468956   4.06622839   1.43962944
H    2.56394911   3.45741868   2.04310918
H    4.87321806   0.71549976  -0.01052000
H    4.59359837   3.80201864   0.11990995
H    5.75926781   2.92360902  -0.88276970
H    5.84917784   2.82672882   0.88466966

