%chk=mol_7143.chk
# wB97XD/Def2SVP opt pop=full gfinput

C 6 H 5 N 1

1 2
C    1.889726   0.000000   0.000000
C    4.618491   0.000000   0.000000
C    6.867567   0.000000   0.000000
C    9.524522   0.000000   0.000000
C   10.766109   2.150489   0.000000
C   13.423065   2.150489   0.000000
N   15.598159   2.150489   0.000000
H    1.145174   1.929184   0.022053
H    1.145061  -0.983602   1.659633
H    1.145042  -0.945430  -1.681724
H   10.486714  -1.814666  -0.000000
H    9.813877   3.964173   0.000000

