%chk=mol_4933.chk
# wB97XD/Def2SVP opt freq pop=full gfinput

C 4 H 10 N 2 O 1

1 2
C    0.89794970   1.59128940   0.56898975
C    2.28693914   1.30453944   0.03547999
O    3.16840887   2.33059907   0.49076983
N    4.44912863   2.07860923  -0.02190999
C    5.25515795   2.99136901   0.41620985
C    6.71385765   2.98718882   0.03392999
N    6.99000740   4.17149830  -0.78197968
H    0.18846993   0.82642967   0.24153991
H    0.54750985   2.56962895   0.22504991
H    0.90404969   1.62216938   1.66386938
H    2.27343917   1.29139948  -1.05956960
H    2.63762903   0.33333987   0.40345985
H    4.91240835   3.80676866   1.07760954
H    6.95775747   2.07715917  -0.52192980
H    7.30950737   3.02178907   0.94971967
H    6.44122791   4.10883856  -1.64163947
H    7.96577692   4.14878845  -1.07530951

