%chk=mol_0433.chk
# wB97XD/Def2SVP opt freq pop=full gfinput

C 5 H 11 N 1

1 2
C    1.77615941  -1.32914948   0.49563983
C    3.27302861  -1.08273959   0.60724974
N    3.64205861   0.08733996  -0.18644993
C    5.07187796   0.36049986  -0.08294997
C    5.40328789   1.54546940  -0.93586963
C    5.96188784   2.67713904  -0.48582980
H    1.49464941  -2.20933914   1.08244967
H    1.48085952  -1.50812948  -0.54357982
H    1.20376945  -0.47537982   0.87343967
H    3.80694842  -1.96966934   0.24717991
H    3.53356886  -0.93200970   1.66146934
H    3.13067865   0.90203965   0.15202995
H    5.65010786  -0.49673983  -0.44691983
H    5.35565805   0.54039985   0.96088964
H    5.17299843   1.45513952  -1.99568915
H    6.21277761   2.81402898   0.56110978
H    6.17694759   3.49565887  -1.16583955

