%chk=mol_1034.chk
# wB97XD/Def2SVP opt pop=full gfinput

C 4 H 9 N 1 O 1

1 2
C    2.002940  -0.004120   0.136797
N    4.752113   0.042916  -0.056560
C    5.834114   1.935117   1.722958
C    7.916989  -0.033448   2.340123
O   10.181315   0.074039   0.808311
C    5.887990  -1.986953   1.527144
H    1.252378  -1.624050  -0.911566
H    1.207970   1.704344  -0.720458
H    1.303987  -0.125100   2.084444
H    4.659914   2.439599   3.356456
H    6.495234   3.671851   0.816399
H    8.434320  -0.125742   4.340569
H    9.521253   0.149723  -0.912001
H    6.595276  -3.606145   0.453194
H    4.731005  -2.683676   3.101192

