%chk=mol_2879.chk
# wB97XD/Def2SVP opt pop=full gfinput

C 6 H 12 O 1

1 2
C    1.461004  -0.283346  -0.169867
C    4.316928  -0.222062   0.138007
C    5.377783   2.427145  -0.317852
C    8.187768   2.481362   0.089176
C    9.843659   3.145128  -1.711619
O   12.420792   3.259267  -1.587219
C   13.570501   2.521688   0.728489
H    0.746858  -2.195181   0.166693
H    0.907560   0.282514  -2.080702
H    0.543485   0.989971   1.178074
H    5.172105  -1.564920  -1.189205
H    4.801624  -0.864852   2.048255
H    4.500194   3.771497   0.992371
H    4.896091   3.051001  -2.235263
H    8.826778   1.954752   1.965542
H    9.252080   3.701766  -3.596243
H   15.618643   2.698510   0.509319
H   13.145048   0.544317   1.167170
H   12.984630   3.763333   2.276610

