%chk=mol_4898.chk
# wB97XD/Def2SVP opt freq pop=full gfinput

C 4 H 11 N 1 O 2

1 2
C    1.03831959  -0.23541991   0.17867993
C    2.51230884   0.06005998  -0.11793996
O    3.32864881  -0.44907984   0.96288967
C    2.98615885  -0.62138975  -1.42779946
N    2.83087897  -2.08301926  -1.38347948
C    2.74417901   1.58248949  -0.18753992
O    4.13494825   1.87352931  -0.31995988
H    0.39309984   0.08955996  -0.64297974
H    0.71557975   0.27692991   1.09206963
H    0.87228966  -1.30298960   0.35665986
H    2.86176872  -0.26086989   1.79608941
H    4.04986858  -0.41363984  -1.59042943
H    2.43009925  -0.23117991  -2.28650904
H    3.28047872  -2.40710902  -0.52316982
H    3.36088872  -2.49509907  -2.15009928
H    2.40832901   2.06617928   0.73568970
H    2.21207905   2.03443933  -1.03001964
H    4.59354830   1.24380958   0.27141991

