%chk=mol_5397.chk
# wB97XD/Def2SVP opt freq pop=full gfinput

C 4 H 8 N 2 O 1

1 2
C    2.39532924  -0.79173970   0.12359995
O    1.66450930   0.43709984   0.07210997
C    2.40620923   1.57775939   0.09985996
C    1.53454936   2.79689908   0.02237999
N    3.70198846   1.56656933   0.17783993
N    4.26369858   2.84062910   0.19229993
C    5.55032778   2.76985884   0.25409991
H    1.67385936  -1.61328936   0.10146996
H    2.96805882  -0.86062968   1.05357957
H    3.05008888  -0.88401967  -0.74838972
H    0.47733980   2.51824903  -0.00722000
H    1.77086937   3.35778880  -0.88612968
H    1.70102942   3.42683864   0.90047967
H    6.14877796   3.69341850   0.27631989
H    6.10121727   1.81449938   0.28671989

