%chk=mol_2628.chk
# wB97XD/Def2SVP opt freq pop=full gfinput

C 6 H 12 O 1

1 2
C    2.23582911  -0.48152983  -1.43379951
C    2.43233919   0.03376998  -0.01722999
C    3.26041865   1.31096959  -0.02134999
C    2.57775903   2.60142899  -0.54153979
C    3.26349878   3.37036872   0.60847974
O    4.48891830   4.05536842   0.28246990
C    3.40423870   2.02166915   1.34738946
H    1.65830934  -1.41070950  -1.42378950
H    3.19831872  -0.68124974  -1.91508925
H    1.69865930   0.24773991  -2.04799914
H    2.94248891  -0.73409969   0.57631981
H    1.45386934   0.20454992   0.44775984
H    4.24119854   1.14640951  -0.49015981
H    1.48338950   2.60353899  -0.47318980
H    2.86665893   2.90145898  -1.55287933
H    2.59058881   4.06913853   1.11735952
H    5.04823828   3.39778876  -0.16448994
H    4.35791826   1.85543931   1.85640931
H    2.59004903   1.82868934   2.05595922

