%chk=mol_1944.chk
# wB97XD/Def2SVP opt pop=full gfinput

C 5 H 6 N 2

1 2
N    1.878142   0.030632   0.455008
C    4.483167   0.060358  -0.016176
C    5.810833   2.331998  -0.016573
C    8.419675   2.267577  -0.255378
N    9.778804   0.117012  -0.418990
C    8.463687  -2.063033  -0.285197
C    5.857055  -2.183862  -0.047867
H    0.965669   1.616528  -0.122908
H    0.997794  -1.565128  -0.144848
H    4.847790   4.129788   0.162932
H    9.517209   4.001552  -0.298218
H    9.596143  -3.773065  -0.352037
H    4.930560  -4.002893   0.107034

