%chk=mol_6851.chk
# wB97XD/Def2SVP opt pop=full gfinput

C 6 H 13 N 1

1 2
C    1.879351   0.067973   0.147966
C    4.736598  -0.103085  -0.014815
N    6.033215   1.836738   1.544965
C    7.962134  -0.062002   2.288345
C   10.381229   0.229602   0.757364
C    6.037524  -2.168971   1.598482
C    6.938791  -4.514782   0.225784
H    1.007602  -1.536990  -0.824412
H    1.193324   1.798093  -0.756287
H    1.208858   0.057561   2.107309
H    5.365877  -0.067218  -1.992546
H    4.980373   2.454168   3.037791
H    8.408393  -0.015685   4.312997
H   10.028437   0.269399  -1.281196
H   11.671024  -1.340685   1.146875
H   11.359352   1.980622   1.267931
H    4.907619  -2.720865   3.255733
H    8.004408  -4.053425  -1.485665
H    5.328007  -5.687603  -0.332819
H    8.154905  -5.652190   1.452897

