%chk=mol_4595.chk
# wB97XD/Def2SVP opt freq pop=full gfinput

C 4 H 10 N 2 O 1

1 2
C    3.36646867  -1.92665935  -0.07603997
C    3.14169884  -0.64418977   0.70818979
C    3.80299854   0.58954978   0.08950996
O    3.37035871   1.74661934   0.81352967
C    5.34081841   0.53210980   0.15125994
N    5.99332762   1.23566961   1.12414956
N    6.05060816  -0.13860995  -0.69643974
H    2.75768900  -2.73409915   0.34353986
H    4.41123867  -2.24655914  -0.02713999
H    3.08721876  -1.80251932  -1.12673962
H    3.49374866  -0.78489971   1.73788929
H    2.06201935  -0.46223983   0.78523970
H    3.49762869   0.71672970  -0.95419961
H    3.51194882   1.54655933   1.75664937
H    5.57954788   2.14705920   1.29886949
H    6.98323727   1.30612957   0.90517968
H    5.44912815  -0.60462981  -1.38433957

