%chk=mol_4301.chk
# wB97XD/Def2SVP opt pop=full gfinput

C 5 H 3 N 1 O 1

1 2
C    1.908094  -0.103387  -0.229961
C    4.161574   0.084263  -0.045316
C    6.846534   0.310085   0.182245
O    8.196498  -1.003728  -1.767461
C    8.305573   1.707443  -1.825287
C   10.726785   2.734169  -1.207516
N   12.668838   3.607336  -0.683854
H   -0.090953  -0.283572  -0.394877
H    7.622947   0.216959   2.076771
H    7.267414   2.651758  -3.313616

