%chk=mol_3214.chk
# wB97XD/Def2SVP opt freq pop=full gfinput

C 6 H 14 O 1

1 2
C    2.20962930   0.75652975   0.10025996
C    3.43637896   1.47001946   0.63810974
O    4.55141830   1.08810961  -0.16026993
C    5.82637787   1.65108931   0.18113995
C    6.27001762   1.23058951   1.58670938
C    6.80863714   1.06451964  -0.84278971
C    5.82419777   3.17764878   0.04381999
H    1.32126939   1.01654959   0.68229973
H    2.34951925  -0.32860985   0.13398995
H    2.03693914   1.02382958  -0.94710964
H    3.59174848   1.17810953   1.68050945
H    3.27542877   2.55029893   0.58161980
H    5.65362787   1.69982946   2.36157918
H    7.31048727   1.51493955   1.78047931
H    6.17456770   0.14657994   1.71847939
H    6.50694752   1.32337952  -1.86443937
H    6.81765747  -0.03048999  -0.79082972
H    7.83000708   1.42623949  -0.68219978
H    5.41004801   3.48214865  -0.92428964
H    6.83547735   3.58981872   0.13547996
H    5.20745802   3.65110874   0.81584966

