%chk=mol_4840.chk
# wB97XD/Def2SVP opt pop=full gfinput

C 5 H 7 N 1 O 1

1 2
C    1.891011  -0.039382   0.364736
C    4.762110   0.000000   0.000000
O    5.844639  -1.403934   2.059121
C    5.446701  -1.474610  -2.353333
C    6.478416  -0.633984  -4.512798
C    5.672996   2.572238   0.000000
N    6.399047   4.622572   0.000000
H    0.901683   0.938306  -1.170799
H    1.358430   0.874112   2.148354
H    1.171989  -1.980641   0.471865
H    5.803406  -0.322312   3.545712
H    5.055017  -3.493650  -2.227741
H    6.960674   1.336660  -4.828553
H    6.886124  -1.938349  -6.046595

