%chk=mol_4885.chk
# wB97XD/Def2SVP opt freq pop=full gfinput

C 5 H 9 N 1 O 1

1 2
C    3.20537901  -1.82454932   0.71277976
C    2.87151885  -0.55242980  -0.02860999
O    2.20161939  -0.57656980  -1.06375957
C    3.34352875   0.75766975   0.58432978
N    4.80799818   0.74097973   0.69192970
C    5.48152781   1.52575946  -0.33972988
C    5.36526823   2.03450918   1.07355964
H    4.28273821  -2.00053930   0.69082975
H    2.70156908  -2.66793895   0.23487991
H    2.85440874  -1.74849927   1.74456942
H    2.89072895   0.84179968   1.57848942
H    2.95409894   1.58388937  -0.02541999
H    4.89024782   2.00079918  -1.11305952
H    6.44401741   1.15109956  -0.66691971
H    6.24867773   1.99976933   1.69978940
H    4.68724871   2.85374904   1.27662957

