%chk=mol_1931.chk
# wB97XD/Def2SVP opt pop=full gfinput

C 7 H 10

1 2
C    6.795625  -1.990808  -4.561837
C    6.828128  -1.091317  -2.500731
C    6.867567   0.000000   0.000000
C    8.293970   2.498974   0.025795
C    6.985826   4.821523  -1.208159
C    8.129545   6.430209   0.936246
C    8.187012   4.000721   2.544724
H    6.766713  -2.795585  -6.407683
H    7.776091  -1.315193   1.318178
H    4.929502   0.269078   0.682021
H   10.254826   2.265668  -0.628806
H    4.915140   4.759086  -1.180153
H    7.618072   5.299302  -3.115629
H   10.007819   7.186572   0.500702
H    6.936259   7.955502   1.652377
H    9.825726   3.789090   3.784573
H    6.462448   3.703599   3.654239

