%chk=mol_2928.chk
# wB97XD/Def2SVP opt pop=full gfinput

C 6 H 8 O 1

1 2
C    1.846206  -0.100798   0.078896
C    4.721613   0.016611  -0.067898
C    5.701530  -1.461760  -2.342051
C    5.566491   2.756241  -0.208305
O    5.880147   3.931254  -2.176870
C    5.949274   4.031220   2.185525
C    6.266653   5.093417   4.166411
H    1.145892   0.912001   1.742724
H    1.193154  -2.060104   0.204563
H    0.972661   0.765868  -1.586576
H    5.529924  -0.832746   1.641945
H    4.917804  -0.736256  -4.115899
H    5.196407  -3.462640  -2.190230
H    7.763486  -1.329082  -2.470174
H    6.553362   6.054928   5.911800

