%chk=mol_5159.chk
# wB97XD/Def2SVP opt freq pop=full gfinput

C 6 H 11 N 1

1 2
C    1.40146947  -0.24417990  -0.37865987
C    2.78826904   0.05983998   0.08957996
C    3.64217877  -1.05748963   0.64145976
C    3.97761846  -0.44331986  -0.68389970
N    4.97421837   0.63848972  -0.79988974
C    4.26100874   1.87935936  -0.43919984
C    3.10363889   1.47729945   0.48624980
H    1.01335967   0.56275976  -1.00850964
H    0.73291975  -0.36003986   0.47996983
H    1.36174941  -1.17012954  -0.96274960
H    3.24019885  -2.06485915   0.64010978
H    4.28306818  -0.85275966   1.49119937
H    3.81366849  -1.03589964  -1.57816947
H    5.72416782   0.48261982  -0.12587996
H    4.92656803   2.61184907   0.02723999
H    3.86142850   2.32482910  -1.35792947
H    3.41685867   1.51430941   1.53588939
H    2.25233912   2.15345907   0.35916987

