%chk=mol_4972.chk
# wB97XD/Def2SVP opt freq pop=full gfinput

C 6 H 11 N 1

1 2
C   -0.91367966   0.00134000  -1.15953958
C   -0.59569979   1.04460955  -0.03907999
C   -1.23260963  -0.00154000   0.92210966
C   -0.59613979  -1.04470956  -0.04205999
C    0.90007967  -1.21936953   0.24927992
N    1.66222942  -0.00041000  -0.07369997
C    0.90038967   1.21800959   0.25267991
H   -1.95734930   0.00203000  -1.49803948
H   -0.26777989   0.00258000  -2.04158926
H   -1.13544953   1.99382925  -0.10262996
H   -0.87903965  -0.00281000   1.95706928
H   -2.32991910  -0.00124000   0.93262964
H   -1.13598955  -1.99385929  -0.10810996
H    1.05562961  -1.48569942   1.30100954
H    1.30172956  -2.04507923  -0.34872988
H    1.84732926   0.00100000  -1.07767951
H    1.30219948   2.04514933  -0.34295988
H    1.05593956   1.48121941   1.30510950

