%chk=mol_4268.chk
# wB97XD/Def2SVP opt pop=full gfinput

C 4 H 2 N 2 O 1

1 2
C    1.824927  -0.076024  -0.002268
C    4.093657  -0.004838   0.000869
C    6.771002   0.073888   0.004611
C    8.321390   2.126131   0.001191
O   10.728939   1.239717   0.007219
N   10.624191  -1.403159   0.014400
N    8.196669  -2.065320   0.012661
H   -0.186062  -0.156621  -0.005027
H    8.086043   4.149083  -0.004762

