%chk=mol_5369.chk
# wB97XD/Def2SVP opt freq pop=full gfinput

C 4 H 9 N 1 O 2

1 2
C    2.70920920  -0.84788966  -0.71868974
O    2.48133898   0.04094999   0.36944988
C    2.95463896   1.35939944   0.10717996
C    2.40917921   2.27268910   1.19519961
C    4.46991825   1.41400945   0.14657994
N    5.14966822   1.81628942  -0.87913966
O    6.51282740   1.76026928  -0.56719983
H    2.24178910  -1.80700922  -0.47884983
H    3.78013849  -1.01456964  -0.86505967
H    2.25666904  -0.46156985  -1.63759935
H    2.59100914   1.70474935  -0.86825967
H    2.72783899   1.93672919   2.18879914
H    1.31394958   2.26020908   1.19280958
H    2.74966884   3.30428863   1.05841959
H    4.95878839   1.09166956   1.08288956
H    6.93110704   2.07631922  -1.38937950

