%chk=mol_4857.chk
# wB97XD/Def2SVP opt pop=full gfinput

C 5 H 7 N 1 O 1

1 2
C    1.797281  -0.146133  -2.183201
C    3.705772  -0.364849  -0.053423
O    3.060960   1.457905   1.835472
C    4.622837   1.549651   3.943802
C    4.123836   3.295796   5.707048
C    6.710361  -0.144111   4.277905
N    8.395127  -1.526048   4.524439
H    2.210394  -1.504146  -3.685174
H    1.814024   1.761999  -2.983727
H   -0.119204  -0.488154  -1.481526
H    5.602376   0.014664  -0.794554
H    3.625137  -2.276742   0.739601
H    2.547181   4.586592   5.474026
H    5.257558   3.482916   7.406517

