%chk=mol_5313.chk
# wB97XD/Def2SVP opt freq pop=full gfinput

C 5 H 11 N 1 O 1

1 2
C    1.86505938   2.09401917  -2.03291941
O    3.21481895   2.00675917  -1.59916937
C    3.30221891   1.52765942  -0.25287992
C    4.73961830   1.42570949   0.16823995
N    5.80868769   1.41306949  -0.83841968
C    5.67931795   2.59512901   0.00990000
C    6.72438717   2.86510897   1.03587961
H    1.85822940   2.43278909  -3.07212877
H    1.31551957   2.81899881  -1.42480946
H    1.37926948   1.11429954  -1.98210919
H    2.83744884   0.53675979  -0.19119993
H    2.77140903   2.21226907   0.41870984
H    4.87564802   0.76757973   1.01868963
H    5.37907839   1.58773947  -1.75569940
H    5.32193804   3.49961853  -0.46928981
H    7.14320755   1.94394934   1.45564950
H    6.29975796   3.45008874   1.85821927
H    7.54476738   3.44284868   0.59753978

