%chk=mol_6241.chk
# wB97XD/Def2SVP opt freq pop=full gfinput

C 5 H 9 N 1 O 1

1 2
O    1.91019928   3.06106877  -0.20334993
C    2.47382927   2.00036931  -0.46306983
C    3.02141881   1.06540954   0.59180981
N    4.39737844   0.70217973   0.23228991
C    5.34762812   1.78456926   0.61811972
C    6.28869772   0.67794973   1.12998962
C    4.99721813  -0.14343995   1.29997945
H    2.55248904   1.64445937  -1.50513947
H    2.38899922   0.17079994   0.58351976
H    2.93256903   1.53950942   1.57651937
H    5.00782824   2.46853900   1.40634954
H    5.73405790   2.37314892  -0.21893992
H    6.97413731   0.28469992   0.37014988
H    6.84551764   0.89896965   2.04340911
H    5.08325815  -1.20419955   1.04723954
H    4.54562807  -0.05131998   2.29617906

