%chk=mol_6581.chk
# wB97XD/Def2SVP opt pop=full gfinput

C 3 H 8 O 3 S 1

1 2
C    1.960496  -0.181735   0.105900
C    4.809447   0.102820   0.074550
S    5.724793   3.346988  -0.027099
O    5.007264   4.402835  -2.448310
O    5.045436   4.543280   2.336344
O    8.767989   2.883344  -0.038569
C   10.327013   5.054639  -0.116124
H    1.437439  -2.181197   0.168998
H    1.110025   0.656075  -1.583609
H    1.136878   0.754492   1.756576
H    5.609935  -0.822938  -1.591754
H    5.637091  -0.724086   1.779291
H   12.301078   4.445978  -0.112930
H    9.999505   6.240972   1.544662
H    9.973483   6.138662  -1.840329

