%chk=mol_6587.chk
# wB97XD/Def2SVP opt freq pop=full gfinput

C 4 H 6 N 2 S 1

1 2
C    0.99455965   0.03659999  -0.00840000
N    2.43876910  -0.04225998  -0.00143000
C    3.27213860   1.06685960   0.00408000
C    4.58513832   0.80073971   0.01108000
S    4.87658834  -0.92164963   0.01100000
C    3.12357903  -1.24488950  -0.00071000
N    2.70327902  -2.45565915  -0.00716000
H    0.64301974   1.07415950   0.00128000
H    0.58028978  -0.46376982   0.87323964
H    0.58997977  -0.44473985  -0.90495962
H    2.83121872   2.05540919   0.00232000
H    5.38242817   1.52983940   0.01608999
H    1.68453944  -2.46534920  -0.01421999

