%chk=mol_5446.chk
# wB97XD/Def2SVP opt pop=full gfinput

C 4 H 6 N 2 O 1

1 2
C    3.274688  -1.356767  -0.433749
O    5.929507  -0.964630  -0.248159
N    6.399709   1.644685  -0.332932
C    8.802514   2.090472  -0.181584
C   10.890794   0.201672   0.060169
C    9.402049   4.751168  -0.241979
N    9.962372   6.875202  -0.283799
H    2.908799  -3.388827  -0.371690
H    2.563792  -0.604561  -2.224642
H    2.305485  -0.454574   1.155133
H   10.791036  -1.147706  -1.499970
H   10.689992  -0.815492   1.846792
H   12.736112   1.129735   0.021618

