%chk=mol_1132.chk
# wB97XD/Def2SVP opt freq pop=full gfinput

C 4 H 7 N 1 O 1

1 2
O    2.41162896  -0.50849980  -1.44813943
C    2.27277923  -0.14909995  -0.08190997
C    3.07545877   1.11798966   0.19080994
C    4.56289816   0.97692961  -0.13973995
C    5.22999811   0.01528999   0.74685973
N    5.74374771  -0.74295974   1.46023953
H    1.88934922  -1.31917953  -1.58472943
H    2.61188889  -0.98312968   0.54003984
H    1.21246946   0.02811999   0.12417996
H    2.94443893   1.41151953   1.23932958
H    2.67198896   1.92850924  -0.42892984
H    5.04192829   1.95681918  -0.02487999
H    4.70127821   0.68281972  -1.18566954

