%chk=mol_3599.chk
# wB97XD/Def2SVP opt freq pop=full gfinput

C 5 H 8 O 2

1 2
O    0.92947966   0.11657995  -0.31037989
C    2.28708911   0.00375000   0.09773996
C    3.06026864   1.26911950  -0.26776990
C    3.55328870   1.18657959  -1.70661938
O    4.37761831   0.03561999  -1.93920922
C    3.83591866  -1.12895954  -1.46358943
C    2.85210872  -1.20646954  -0.56266975
H    0.50473982   0.75573969   0.28603989
H    2.29679918  -0.13462995   1.18492961
H    2.43873906   2.16272926  -0.13836995
H    3.92892838   1.35596955   0.39544988
H    4.15968847   2.06947923  -1.93837929
H    2.71795893   1.17187965  -2.41675925
H    4.31814861  -1.99126923  -1.90464926
H    2.46403909  -2.17453909  -0.26429990

