%chk=mol_2018.chk
# wB97XD/Def2SVP opt pop=full gfinput

C 5 H 12 N 2

1 2
N    2.169292   4.060473   0.659873
C    4.713979   3.543104  -0.259894
C    6.438127   2.732563   1.910853
C    9.063165   2.122862   0.900190
C   10.762406   4.358502   0.082619
C   12.881413   2.885858   1.417503
N   10.907650   1.659690   2.973295
H    1.090939   4.745650  -0.780778
H    2.232163   5.446739   1.996326
H    5.467752   5.236582  -1.181854
H    4.624595   2.051997  -1.693308
H    5.645557   1.055242   2.839181
H    6.528380   4.234933   3.339089
H    9.033968   0.579409  -0.489987
H   10.308985   6.173131   0.974494
H   10.990931   4.634270  -1.950897
H   13.909272   1.573669   0.187102
H   14.238387   4.027743   2.476127
H   11.226012  -0.196683   3.372311

