%chk=mol_0593.chk
# wB97XD/Def2SVP opt pop=full gfinput

C 6 H 10

1 2
C    1.548593   0.164576   0.112136
C    4.324090   0.111116   0.617355
C    6.008195   1.639961  -0.505691
C    8.736582   1.641000  -0.034450
C   10.284929  -0.602615  -0.853835
C   10.504270   1.852895  -2.255350
H    0.928158  -1.673126  -0.604618
H    1.033094   1.606834  -1.277852
H    0.522056   0.560398   1.862968
H    4.981451  -1.273335   1.987066
H    5.326590   3.028059  -1.863251
H    9.299361   2.591741   1.695311
H    9.349741  -2.162281  -1.797621
H   11.846787  -1.170307   0.343477
H   12.218459   2.947746  -2.010196
H    9.723737   1.941316  -4.147684

