%chk=mol_1044.chk
# wB97XD/Def2SVP opt pop=full gfinput

C 4 H 7 N 1 O 1

1 2
C    1.912989  -0.063797  -0.531977
N    4.621344   0.004989  -0.160910
C    6.036390   2.174905  -0.024453
C    8.554412   2.322209  -0.149874
C    9.819736   4.797485   0.033713
O   12.121251   4.990446  -0.121528
H    1.231534  -2.006851  -0.352283
H    1.421584   0.628787  -2.417356
H    0.945997   1.092092   0.883655
H    5.574106  -1.581587  -0.687936
H    4.886643   3.865397   0.219152
H    9.761702   0.688654  -0.381328
H    8.585933   6.453037   0.311937

