%chk=mol_6504.chk
# wB97XD/Def2SVP opt freq pop=full gfinput

C 6 H 8 S 1

1 2
C    2.29673910  -0.58274978  -1.40056944
C    2.45229912  -0.02270999   0.00473000
C    2.96213889   1.38781953   0.00259000
C    2.16263914   2.51598907  -0.02008999
S    3.06383872   3.96928859  -0.01704999
C    4.54152822   3.11523890   0.01656999
C    4.34953833   1.75104940   0.02489999
H    1.92476928  -1.61153936  -1.36042953
H    3.25396872  -0.58762980  -1.93337929
H    1.58910942   0.01230000  -1.98803926
H    3.13962889  -0.65917981   0.57498980
H    1.48590946  -0.06446998   0.52133977
H    1.08182955   2.55873895  -0.03994998
H    5.48053789   3.65063858   0.02852999
H    5.16811800   1.04091966   0.04485998

