%chk=mol_5386.chk
# wB97XD/Def2SVP opt freq pop=full gfinput

C 4 H 6 N 2 O 1

1 2
C    1.89128935  -0.67555976  -0.77584970
O    2.40667915   0.00162000   0.37085986
C    3.06149888   1.16826952   0.00000000
C    2.38143921   2.30563903  -0.23411992
N    1.01732957   2.50113893  -0.18893993
C    4.46749830   1.16826952   0.00000000
N    5.61850786   1.16826952   0.00000000
H    1.54045939  -1.65984941  -0.45288983
H    2.66417909  -0.82092965  -1.53772938
H    1.03818965  -0.13584995  -1.19828951
H    2.91554904   3.22125888  -0.48932981
H    0.53363979   1.77685928   0.34263986
H    0.74852973   3.43765855   0.10951996

