%chk=mol_2499.chk
# wB97XD/Def2SVP opt freq pop=full gfinput

C 7 H 14

1 2
C    1.05178964   0.09719997  -0.08746997
C    2.54220891   0.06348997  -0.05399998
C    3.36610866  -0.68175977  -1.08165956
C    2.74956894  -1.43863940  -2.20945930
C    3.42594862   0.84033966  -1.02541959
C    2.81780887   1.66884935  -2.12990928
C    4.68376827   1.45826948  -0.45812982
H    0.68462974   0.88558966   0.57682979
H    0.65217972  -0.85663962   0.27121991
H    0.63548976   0.27987990  -1.08021951
H    2.88008881  -0.01630999   0.97711962
H    4.23156834  -1.22530949  -0.71007973
H    1.82598937  -0.99333960  -2.58696890
H    2.51561904  -2.45778894  -1.88484931
H    3.45628881  -1.50573945  -3.04242897
H    1.93080926   1.21995962  -2.58212900
H    3.54919863   1.81920934  -2.93164897
H    2.52907920   2.65285897  -1.74540937
H    5.11130810   0.85303968   0.34870988
H    4.46969843   2.45270896  -0.05350998
H    5.44373798   1.55865943  -1.23987949

