%chk=mol_6410.chk
# wB97XD/Def2SVP opt pop=full gfinput

C 4 H 5 N 1 O 2

1 2
O    4.827097  -3.149550  -0.067142
N    6.300385  -1.046039  -0.820632
C    6.733189   0.723179   1.040294
O    5.680762   0.599194   3.111547
C    8.467126   2.872384   0.283761
C   10.978534   1.985573  -0.510755
C   13.037504   1.273675  -1.157155
H    4.403497  -2.732450   1.692892
H    7.573663  -1.365554  -2.220598
H    8.654435   4.150972   1.901575
H    7.553273   3.934070  -1.240908
H   14.870652   0.654110  -1.714095

