%chk=mol_0744.chk
# wB97XD/Def2SVP opt freq pop=full gfinput

C 5 H 10 O 1

1 2
C    1.44669938  -0.59905976  -0.45397982
C    2.91709900  -0.35099989  -0.16930994
C    3.24590874   1.12556946  -0.02189999
O    2.38482928   2.00044942  -0.09956996
C    4.70932865   1.44827950   0.23137991
C    4.96520805   2.93766880   0.37488985
H    1.25357962  -1.67145944  -0.55353975
H    1.13820958  -0.10791996  -1.38258946
H    0.81869972  -0.21183991   0.35491988
H    3.52055860  -0.75520974  -0.98895967
H    3.20149875  -0.85796970   0.75881970
H    5.29503775   1.05581963  -0.60650980
H    5.01894808   0.93409967   1.14727962
H    4.66643810   3.47719860  -0.52988976
H    6.02873802   3.12649894   0.55022979
H    4.40053797   3.35416889   1.21548951

