%chk=mol_0899.chk
# wB97XD/Def2SVP opt freq pop=full gfinput

C 5 H 6 O 1

1 2
O    1.00006962  -0.00516000  -0.00868000
C    2.41999912   0.00000000   0.00000000
C    2.90201902   1.36116946   0.00000000
C    3.29929876   2.48306894   0.00000000
C    3.76862860   3.80841851   0.00000000
C    2.92790890   4.84812832  -0.00005000
H    0.72483969  -0.93604964  -0.00824000
H    2.77141881  -0.54051983  -0.88422966
H    2.76053905  -0.53665978   0.89081967
H    4.84126806   3.97614837   0.00002000
H    1.85064936   4.70894861  -0.00011000
H    3.30399871   5.86545801  -0.00007000

