%chk=mol_4865.chk
# wB97XD/Def2SVP opt pop=full gfinput

C 4 H 8 N 2 O 1

1 2
C    6.249305  -1.493564   3.428549
C    5.638886  -0.576820   0.803776
O    4.379856  -1.869960  -0.666676
C    6.532349   2.029679   0.076893
C    9.360645   2.318203   0.198913
N   10.411616   3.973187   1.861002
N   10.854001   1.043261  -1.252737
H    8.294613  -1.574406   3.697854
H    5.477674  -3.393343   3.693848
H    5.393807  -0.227655   4.818613
H    5.607158   3.405721   1.314531
H    5.927598   2.422780  -1.864820
H    9.447950   5.584802   2.233127
H   12.267365   4.283329   1.471208
H    9.850595  -0.131771  -2.431945

