%chk=mol_6132.chk
# wB97XD/Def2SVP opt freq pop=full gfinput

C 4 H 8 N 2 O 1

1 2
O    3.01945901  -1.00977957  -0.50479984
C    2.33352923   0.10526996   0.05547998
C    3.23571873   1.33527946   0.06417997
C    3.53148890   1.87903929  -1.34988952
N    3.40410876   3.36829877  -1.26440954
C    2.86701894   3.56033850  -0.10102996
N    2.58737898   2.48319912   0.68053973
H    2.38913894  -1.75144935  -0.52272981
H    2.03863931  -0.15492995   1.07780969
H    1.42068946   0.28447992  -0.52338982
H    4.18262815   1.11935949   0.57398981
H    2.82195902   1.51002944  -2.09902930
H    4.54374838   1.61011934  -1.66896939
H    2.63634896   4.54863834   0.32714987
H    2.70638895   2.60002923   1.68008947

