%chk=mol_5321.chk
# wB97XD/Def2SVP opt freq pop=full gfinput

C 5 H 11 N 1 O 1

1 2
C    4.58383799  -1.10249960   0.14024994
O    3.33701897  -0.41970983   0.20157993
C    3.37343884   0.94615966   0.22036991
C    4.43651867   1.76317930   0.19721992
C    4.32655859   3.26380873   0.22029991
C    4.93096828   3.88590860  -1.04357958
N    4.86181831   5.34480810  -0.99963963
H    4.37933826  -2.17751908   0.12288995
H    5.19176817  -0.88850963   1.02563953
H    5.12535810  -0.84762967  -0.77637970
H    2.35438919   1.31940949   0.25851992
H    5.44670820   1.36684942   0.17087993
H    4.85414791   3.63442850   1.10785961
H    3.27851892   3.57367849   0.32107988
H    4.40069866   3.52725863  -1.93347931
H    5.98096752   3.58771849  -1.14456952
H    3.88627863   5.63952780  -0.96931964
H    5.24522829   5.72456789  -1.86438930

