%chk=mol_6018.chk
# wB97XD/Def2SVP opt freq pop=full gfinput

C 4 H 3 N 1 O 2

1 2
O    0.97511965  -0.06647997   0.06825998
C    2.19227934  -0.00911000   0.02236999
C    2.94075894   1.23316956  -0.04837998
C    4.26327848   1.10063958  -0.11071996
O    4.99692822  -0.05692998  -0.11962995
N    4.29711866  -1.27882946  -0.02029999
C    3.00583887  -1.25341964   0.04286999
H    2.41695905   2.17705917  -0.04940998
H    4.93440819   1.94882929  -0.16940995
H    2.42754912  -2.18677926   0.11977995

