%chk=mol_5109.chk
# wB97XD/Def2SVP opt pop=full gfinput

C 5 H 13 N 1 O 1

1 2
C    6.710625  -4.744555  -2.177210
N    7.858332  -2.415410  -3.075832
C    7.831308  -0.451588  -1.111102
C    8.801551   2.121237  -2.108537
C   11.505466   1.927048  -3.105973
O    7.083790   2.965812  -4.037400
C    7.407934   5.545760  -4.707629
H    6.746530  -6.159203  -3.685987
H    4.738639  -4.462002  -1.617625
H    7.763959  -5.520703  -0.573796
H    6.868493  -1.730384  -4.589824
H    9.000198  -1.049875   0.491064
H    5.887669  -0.190636  -0.436527
H    8.743272   3.461563  -0.527045
H   11.576670   0.895674  -4.898623
H   12.742159   0.990443  -1.737887
H   12.289380   3.805663  -3.472164
H    5.889936   6.068647  -6.009065
H    9.208976   5.836533  -5.677040
H    7.285631   6.760420  -3.038510

