%chk=mol_0856.chk
# wB97XD/Def2SVP opt pop=full gfinput

C 5 H 6 O 1

1 2
O    2.295564  -0.002211   1.045548
C    4.497189  -0.002646   0.313751
C    5.984951  -2.389143  -0.194491
C    8.440178  -1.264926  -1.014216
C    8.444883   1.261619  -0.999930
C    5.992473   2.384192  -0.167241
H    5.105700  -3.480252  -1.708350
H    6.194768  -3.491741   1.536328
H   10.044915  -2.410270  -1.561273
H   10.053306   2.407606  -1.534363
H    6.207146   3.466854   1.575880
H    5.118002   3.496031  -1.668968

