%chk=mol_3697.chk
# wB97XD/Def2SVP opt pop=full gfinput

C 5 H 10 O 2

1 2
O    6.622281   2.707411   4.600330
C    5.341935   4.598819   3.190746
C    5.458984   3.983316   0.380156
C    8.144663   3.730055  -0.665184
C    9.656047   6.106499  -0.411091
C   11.090047   7.189312  -2.619727
O    8.709181   8.213184  -1.825778
H    6.405454   3.126439   6.376976
H    6.203329   6.433289   3.600174
H    3.369873   4.654660   3.813751
H    4.424737   5.437536  -0.672856
H    4.486531   2.181443   0.053876
H    8.015633   3.180182  -2.659185
H    9.145576   2.193008   0.296063
H   10.357891   6.444193   1.479618
H   11.132055   6.157276  -4.385620
H   12.766460   8.298883  -2.238381

