%chk=mol_5964.chk
# wB97XD/Def2SVP opt pop=full gfinput

C 5 H 7 N 1 O 1

1 2
O    1.652414  -0.058204   0.283062
C    4.376209  -0.010847   0.010960
C    5.753385   2.001730   1.660975
C    7.753320  -0.005461   2.317314
C    5.815519  -2.045005   1.579509
C    5.050085   0.053441  -2.664212
N    5.650262   0.105201  -4.774714
H    1.334392  -0.100609   2.091435
H    4.651920   2.642517   3.295418
H    6.481893   3.669659   0.678846
H    9.417771   0.044862   1.085837
H    8.378838  -0.035508   4.285578
H    6.594086  -3.648948   0.531467
H    4.735200  -2.784455   3.186154

