%chk=mol_2214.chk
# wB97XD/Def2SVP opt freq pop=full gfinput

C 5 H 8 O 2

1 2
C    1.05809963   0.04866998   0.01728999
C    0.75210971   0.72708976   1.31547940
C   -0.36071986   0.24452990   2.20660901
O    1.01458967  -0.06172998   2.48197889
C    2.52954888  -0.00350000  -0.25187990
C    3.31406879  -1.27595961  -0.07130998
O    2.89120889  -0.82882971  -1.36731946
H    0.62893975  -0.96169966   0.00072000
H    0.57110977   0.60862976  -0.79024971
H    1.02030957   1.77495933   1.33455944
H   -0.99470967  -0.56696981   1.87018931
H   -0.85074967   0.96294963   2.85202885
H    3.03099871   0.94851965  -0.15267994
H    2.81877899  -2.14403939   0.34693986
H    4.36785841  -1.19974959   0.16519994

