%chk=mol_5109.chk
# wB97XD/Def2SVP opt freq pop=full gfinput

C 5 H 13 N 1 O 1

1 2
C    3.55110860  -2.51070929  -1.15212953
N    4.15844870  -1.27817941  -1.62765944
C    4.14414835  -0.23896991  -0.58796978
C    4.65757847   1.12250960  -1.11578953
C    6.08842802   1.01974964  -1.64360940
O    3.74857879   1.56943941  -2.13649917
C    3.92010856   2.93468881  -2.49116921
H    3.57010865  -3.25930858  -1.95053935
H    2.50757909  -2.36118913  -0.85600972
H    4.10850859  -2.92142892  -0.30363989
H    3.63464856  -0.91567969  -2.42882919
H    4.76269817  -0.55556977   0.25985989
H    3.11561894  -0.10087997  -0.23099992
H    4.62673855   1.83177936  -0.27889988
H    6.12610769   0.47396982  -2.59223890
H    6.74285746   0.52411979  -0.91964966
H    6.50325727   2.01386929  -1.83738935
H    3.11681867   3.21138859  -3.17985892
H    4.87317848   3.08855891  -3.00415874
H    3.85538864   3.57745886  -1.60790944

