%chk=mol_4670.chk
# wB97XD/Def2SVP opt pop=full gfinput

C 5 H 11 N 1 O 1

1 2
C    2.061653   0.213482   0.423110
C    4.823318  -0.127254  -0.339603
N    4.984285  -1.000478  -2.972067
C    6.276499   2.330316  -0.132961
O    5.805163   4.112347  -2.137186
C    6.884480   3.463773   2.403505
C    8.957245   2.323191   0.832935
H    1.915540   0.820689   2.396796
H    1.012931  -1.560857   0.229866
H    1.118491   1.648767  -0.735179
H    5.683389  -1.563200   0.880386
H    3.837883   0.122398  -4.041916
H    4.198310  -2.756298  -3.079857
H    6.410064   3.375731  -3.713406
H    6.305865   2.463258   4.092505
H    6.815467   5.503979   2.572522
H   10.300519   3.594127  -0.047054
H    9.768807   0.546981   1.447058

