%chk=mol_1348.chk
# wB97XD/Def2SVP opt pop=full gfinput

C 5 H 12 N 2

1 2
C    6.463600  -1.959438  -2.275400
C    5.160143  -0.687501  -0.050134
C    5.143872   2.187169  -0.259856
C    7.775580   3.248477  -0.065403
N    8.767460   4.438627  -1.957548
N   11.143942   5.270824  -1.509608
C   12.383527   6.482630  -3.652500
H    6.288650  -4.015422  -2.123183
H    8.480165  -1.501142  -2.328691
H    5.615227  -1.374776  -4.069884
H    6.092628  -1.271748   1.706120
H    3.201820  -1.358052   0.046166
H    4.045866   2.982857   1.303703
H    4.266227   2.791503  -2.033912
H    8.791081   2.940055   1.734202
H   11.201031   6.478662  -0.001550
H   12.492148   5.190265  -5.264588
H   14.312559   7.018953  -3.136001
H   11.363754   8.187654  -4.229604

