%chk=mol_1278.chk
# wB97XD/Def2SVP opt freq pop=full gfinput

C 6 H 13 N 1

1 2
C    1.41544938   0.35363987   0.79593974
C    2.69655895   0.55375981  -0.01891999
C    2.43672919   0.22104992  -1.50152946
C    3.70765877   0.25992990  -2.35232925
N    3.39886880  -0.09344997  -3.73624849
C    3.18747878   1.97065926   0.16201994
C    4.36301851   2.29364896   0.71552968
H    1.57875931   0.59284979   1.85246933
H    1.08082950  -0.68753976   0.73943973
H    0.60191977   0.98852962   0.42810985
H    3.44744849  -0.14906995   0.36583987
H    1.69439936   0.91749966  -1.91546929
H    1.99429929  -0.78198969  -1.56574941
H    4.44974804  -0.44202983  -1.95740926
H    4.15268850   1.25981963  -2.34231925
H    3.03590894  -1.04518962  -3.77544856
H    4.25949860  -0.09205996  -4.28298855
H    2.53372908   2.76955891  -0.18594992
H    5.05202818   1.53797948   1.07930958
H    4.66056871   3.33310866   0.81684971

