%chk=mol_4892.chk
# wB97XD/Def2SVP opt freq pop=full gfinput

C 4 H 8 N 2 O 1

1 2
C    1.29261947  -1.48160946   0.55752975
C    1.87200928  -0.46417981  -0.38931987
O    1.37532949  -0.26758990  -1.50055933
C    3.10831904   0.28481990   0.07101998
N    4.20189857  -0.67237973   0.28783989
C    4.91969824  -0.87354970  -0.75564975
N    5.98342752  -1.71255946  -0.75887972
H    1.23798954  -1.06189966   1.56602943
H    1.91439927  -2.38052917   0.55802977
H    0.27948990  -1.74410939   0.23917991
H    2.87851882   0.79897970   1.00977957
H    3.36283875   1.05902958  -0.66335976
H    4.74439812  -0.39281985  -1.73651934
H    6.03874779  -2.30549932   0.06172998
H    6.20697737  -2.17957926  -1.62873936

