%chk=mol_5640.chk
# wB97XD/Def2SVP opt freq pop=full gfinput

C 4 H 2 N 2 O 1

1 2
N    0.96279967  -0.10845996  -0.00412000
C    2.12258911  -0.04695999  -0.00123000
C    3.53244877   0.05066998   0.00221000
C    4.39082861   1.12094963   0.00076000
N    5.68822813   0.66857976   0.00583000
C    5.55859756  -0.64044976   0.01007000
O    4.27319860  -1.09521961   0.00822000
H    4.15490866   2.17635918  -0.00357000
H    6.33836746  -1.39010942   0.01478999

