%chk=mol_6025.chk
# wB97XD/Def2SVP opt freq pop=full gfinput

C 5 H 7 N 1 O 1

1 2
O    0.84671968  -0.03588999   0.16795993
C    2.28404903  -0.01271000   0.00812000
C    3.04980874   1.03390956   0.86029965
N    3.98274851  -0.00757000   1.32974958
C    3.08017898  -1.06135964   0.82939965
C    2.58176899   0.01254999  -1.41403937
C    2.82560897   0.03339999  -2.59052920
H    0.70755976  -0.05202998   1.12962949
H    2.45616913   1.47518945   1.66939938
H    3.52939868   1.85298932   0.31362987
H    4.87809801   0.01268000   0.83680969
H    3.58308887  -1.84972930   0.25902990
H    2.49992919  -1.54332936   1.62488937
H    3.03177881   0.05175998  -3.63683867

