%chk=mol_2203.chk
# wB97XD/Def2SVP opt pop=full gfinput

C 5 H 10 O 2

1 2
C   -2.800291   1.439008   0.167713
C   -2.805317  -1.438365  -0.112042
C   -0.398751  -2.719013   0.823750
O    1.622273  -2.119838  -0.842100
C    3.066629  -0.006066  -0.037454
O    1.644912   2.112374   0.799959
C   -0.413850   2.714195  -0.821842
H   -4.451099   2.206312  -0.818894
H   -3.018932   1.892334   2.178042
H   -3.070314  -1.892655  -2.118950
H   -4.436642  -2.203874   0.910432
H    0.042292  -2.239666   2.790105
H   -0.664579  -4.769556   0.731929
H    4.310522  -0.593431   1.508795
H    4.277603   0.580732  -1.609914
H   -0.671835   4.765719  -0.724540
H   -0.014986   2.234091  -2.798136

