%chk=mol_4565.chk
# wB97XD/Def2SVP opt freq pop=full gfinput

C 5 H 9 N 1 O 1

1 2
C    0.95817965  -0.01950999   0.00640000
C    2.49231911  -0.04505998   0.02452999
C    2.97051883  -0.81345969   1.26030946
O    2.92335892  -0.77225971  -1.13021958
C    3.02997899   1.39780951  -0.02181999
C    4.49582863   1.47823942   0.05744998
N    5.64928770   1.58279943   0.13257995
H    0.58609980   0.49315980  -0.88808966
H    0.55258983   0.48686981   0.88839966
H    0.55091977  -1.03642964  -0.02919999
H    2.70150900  -0.29467988   2.18618917
H    4.05530834  -0.96518964   1.24482942
H    2.52912903  -1.81675935   1.28714943
H    2.50793910  -0.39180985  -1.92349923
H    2.59931898   1.98293924   0.79997969
H    2.71461916   1.87505937  -0.95824969

