%chk=mol_7164.chk
# wB97XD/Def2SVP opt pop=full gfinput

C 7 H 12

1 2
C    3.531766   0.258231  -1.352477
C    3.439509  -0.249425   1.435134
C    1.007678   0.012132  -0.040724
C   -0.649404   2.300458   0.369120
C   -3.307796   1.373736  -0.287503
C   -3.244981  -1.424343   0.391986
C   -0.634343  -2.270619  -0.507883
H    4.145417   2.115624  -1.964710
H    4.149669  -1.262148  -2.579249
H    3.996639  -2.109728   2.089319
H    3.984506   1.266627   2.702573
H   -0.573815   2.891716   2.352822
H   -0.108981   3.906215  -0.818044
H   -4.774525   2.410289   0.734329
H   -3.653521   1.595534  -2.318921
H   -4.770973  -2.497935  -0.497092
H   -3.396367  -1.653851   2.446440
H   -0.686405  -2.698416  -2.533877
H    0.001474  -3.956728   0.505880

