%chk=mol_6657.chk
# wB97XD/Def2SVP opt pop=full gfinput

C 4 H 2 N 2 S 1

1 2
N    1.574501   0.484582  -0.014078
C    3.758193   0.273311  -0.006406
C    6.435349   0.042046   0.002910
C    8.131927   2.019985   0.006274
N   10.657470   1.344238   0.015496
C   10.838335  -1.134327   0.019030
S    8.038763  -2.769866   0.011697
H    7.639445   4.009318   0.002287
H   12.643118  -2.098428   0.026116

