%chk=mol_3226.chk
# wB97XD/Def2SVP opt freq pop=full gfinput

C 5 H 6 O 2

1 2
C    3.54512858  -0.67918980   0.10076997
C    4.67974806  -0.06085998  -0.23088992
O    4.93050814   1.23840952   0.13291995
C    6.20413780   1.76702940   0.02474999
C    7.34520721   1.09720957   0.25669989
C    6.28240728   3.22541881  -0.28150991
O    7.33062744   3.85016847  -0.39527985
H    3.35752892  -1.70240939  -0.20754993
H    2.78476882  -0.17665994   0.68915975
H    5.44889784  -0.53297985  -0.82698971
H    7.34937716   0.05248998   0.54429978
H    8.31124687   1.59081936   0.18736993
H    5.30272770   3.71621847  -0.40431985

