%chk=mol_1427.chk
# wB97XD/Def2SVP opt pop=full gfinput

C 5 H 10 N 2

1 2
C    1.951407   0.385863  -2.553889
C    4.689828   0.802000  -2.007418
C    5.602131   2.870229  -0.873337
N    8.081830   3.351392  -0.324579
C    9.120083   5.409984   0.815039
N   11.502007   5.644536   1.232668
C   12.186088   8.005919   2.485065
H    1.663885   0.175669  -4.590542
H    0.774259   1.953221  -1.893449
H    1.303231  -1.343009  -1.622991
H    5.969361  -0.696950  -2.587111
H    4.329911   4.378269  -0.290451
H    9.348248   2.001277  -0.823051
H    7.718095   6.867605   1.339154
H   13.881002   7.696590   3.629162
H   10.708284   8.710220   3.753601
H   12.620139   9.459100   1.079090

