%chk=mol_2998.chk
# wB97XD/Def2SVP opt pop=full gfinput

C 7 H 14

1 2
C    6.277255  -2.593215   1.151599
C    4.885301  -0.173911   1.926897
C    4.446941  -0.182340   4.789303
C    6.249003   2.224661   0.917349
C    4.690338   4.623593   1.365044
C    8.872926   2.593366   1.989636
C   10.986943   2.585429   0.599138
H    6.569879  -2.651324  -0.896675
H    5.173579  -4.266095   1.672445
H    8.123592  -2.748815   2.073956
H    3.016456  -0.242905   1.026235
H    6.227687  -0.190163   5.842939
H    3.386824  -1.870489   5.351251
H    3.341735   1.457886   5.393260
H    6.401277   2.003960  -1.143454
H    4.559267   5.107382   3.373331
H    2.768676   4.400171   0.628901
H    5.545099   6.241746   0.394556
H    9.031606   2.906040   4.017539
H   10.943707   2.296716  -1.431297
H   12.820148   2.872327   1.475612

