%chk=mol_7041.chk
# wB97XD/Def2SVP opt freq pop=full gfinput

C 7 H 10

1 2
C    0.97192961  -0.01295999   0.01096000
C    2.48780918   0.00388000   0.02737999
C    3.14986873   1.05270958   0.95781964
C    4.24183846   0.00145000   1.24410951
C    3.19131875  -1.08556962   0.89578968
C    3.69191837  -2.23676920   0.17670994
C    4.10628843  -3.19542861  -0.41651985
H    0.60304976  -0.87329972  -0.55644977
H    0.58240974   0.89405966  -0.46220985
H    0.55696976  -0.07173997   1.02246964
H    2.88296890   0.06388997  -0.99789959
H    2.55648923   1.31847954   1.84058928
H    3.49252868   1.96962929   0.47135982
H    5.09416819   0.06047998   0.55600977
H    4.61856842  -0.01450999   2.27052927
H    2.59887910  -1.37349951   1.77595925
H    4.47386789  -4.04514837  -0.94288963

