%chk=mol_3534.chk
# wB97XD/Def2SVP opt freq pop=full gfinput

C 6 H 6 O 1

1 2
O    1.07927954  -0.03031999   0.29837990
C    2.27824926  -0.04020998   0.11523996
C    3.32439876   1.07778955  -0.07192998
C    4.27824831  -0.01902999  -0.60444975
C    3.37712860  -1.13542962   0.00169000
C    3.05609894  -2.22733927  -0.88930970
C    2.79769897  -3.14431882  -1.62088931
H    3.63279843   1.53370941   0.87347966
H    3.04987884   1.84973931  -0.79329973
H    4.35104847  -0.02673999  -1.69936943
H    5.29350805   0.02308999  -0.19720992
H    3.71177864  -1.46658945   0.99275964
H    2.56129909  -3.96036839  -2.26453900

