%chk=mol_4992.chk
# wB97XD/Def2SVP opt freq pop=full gfinput

C 4 H 8 N 2 O 1

1 2
C    1.23668957  -0.04809998  -0.25621989
N    2.69326901  -0.01062000  -0.32123986
C    3.31476879  -1.20976961   0.26153991
C    4.71737814  -0.69802970   0.57784975
O    5.65853834  -1.01235962  -0.43482986
C    4.43990850   0.77729970   0.58546978
N    3.30115891   1.13454962   0.08893996
H    0.84648967  -0.97205961  -0.69641972
H    0.80901968   0.78814971  -0.81983966
H    0.88336968   0.02447999   0.77829969
H    3.31483865  -2.04513931  -0.44489983
H    2.80986881  -1.50258934   1.18938947
H    5.08690786  -1.03170955   1.54996943
H    5.25688791  -0.72607976  -1.27703953
H    5.18550777   1.48318934   0.97696960

