%chk=mol_2376.chk
# wB97XD/Def2SVP opt freq pop=full gfinput

C 7 H 8

1 2
C    2.30626917   0.64461976   2.24123907
C    2.99986887   0.20224993   1.36616957
C    3.86152840  -0.33460987   0.30240989
C    4.66628838   0.76392972  -0.39793983
C    5.68286800   1.47375941   0.50084978
C    6.75730753   0.57408977   0.94678968
C    7.63211727  -0.15989994   1.31944954
H    1.69801927   1.04027963   3.02138877
H    3.23284864  -0.83581966  -0.44354984
H    4.52817822  -1.10183954   0.71102977
H    3.97587848   1.51519942  -0.80307966
H    5.18746805   0.32084990  -1.25641954
H    5.18599796   1.92291927   1.36777949
H    6.12758780   2.30208921  -0.06368998
H    8.40522671  -0.81166971   1.65508938

