%chk=mol_3888.chk
# wB97XD/Def2SVP opt pop=full gfinput

C 5 H 9 N 1 O 1

1 2
C    2.824536   0.346255  -0.715942
C    5.379426  -0.196229   0.355306
C    5.946723  -2.853713   1.160481
O    8.280704  -3.584735  -0.034752
C    9.553170  -1.361094  -0.946205
C    7.682587   0.742606  -0.932655
N    6.834308   1.927010   1.412948
H    2.657201   2.298757  -1.382713
H    1.368162   0.039325   0.721800
H    2.425860  -0.903913  -2.315444
H    4.483734  -4.194342   0.577840
H    6.186850  -2.992797   3.212062
H   11.163973  -0.965707   0.289412
H   10.253938  -1.752041  -2.850973
H    7.545998   1.816443  -2.661471
H    7.905178   1.345712   2.911955

