%chk=mol_6775.chk
# wB97XD/Def2SVP opt freq pop=full gfinput

C 7 H 10

1 2
C   -1.08964956  -0.00612000  -1.02390957
C   -0.61617976   1.04400957   0.03422999
C   -1.03727961  -0.03385999   1.08646965
C   -0.55566978  -1.06087959   0.00497000
C    0.93469965  -1.18637955  -0.03360999
C    1.62570941  -0.03386999  -0.03562999
C    0.90373969   1.29401958  -0.00036000
H   -2.17530918  -0.03662999  -1.18009961
H   -0.60281974   0.02838999  -2.00325918
H   -1.19595957   1.97168922   0.06077998
H   -0.50243980  -0.02484999   2.04101920
H   -2.11385918  -0.06921998   1.29544950
H   -1.06632960  -2.02736926   0.00493000
H    1.40939939  -2.16018915  -0.05812998
H    2.71095896  -0.03464999  -0.06250998
H    1.16856956   1.88033926  -0.88666964
H    1.21263957   1.85717928   0.88669968

