%chk=mol_6072.chk
# wB97XD/Def2SVP opt freq pop=full gfinput

C 5 H 5 N 1 O 1

1 2
O    1.18472958   0.12493996   0.31214988
C    2.37519932  -0.01464999   0.16778994
N    3.34493876   0.93235964   0.00862000
C    4.30940819  -0.02589999  -0.54685980
C    3.41241884  -1.15709960   0.01683999
C    3.04753900  -2.20057917  -0.91712964
C    2.74803901  -3.07775879  -1.68136942
H    3.05246902   1.82701921  -0.36237988
H    4.38825798   0.05185998  -1.63616943
H    5.29938793   0.05588998  -0.09071997
H    3.74245858  -1.53972936   0.99077964
H    2.47349906  -3.85909843  -2.35234904

