%chk=mol_0058.chk
# wB97XD/Def2SVP opt pop=full gfinput

C 4 H 8

1 2
C    1.874930  -0.035886  -0.030500
C    4.710124   0.050739  -0.003307
C    6.065511  -2.441923  -0.013058
C    5.992718   2.239118   0.035300
H    1.039406   1.854237  -0.025077
H    1.173822  -1.040521   1.638430
H    1.204889  -1.019715  -1.721918
H    4.735767  -4.021621   0.104899
H    7.346953  -2.585580   1.605946
H    7.154938  -2.667178  -1.756425
H    5.030073   4.050061   0.041555
H    8.042618   2.273454   0.051457

