%chk=mol_5017.chk
# wB97XD/Def2SVP opt freq pop=full gfinput

C 5 H 11 N 1 O 1

1 2
C    2.76698899  -1.04712963  -0.74902970
N    2.26698923   0.15276994  -0.09048996
C    3.30735874   1.18510962   0.03714999
C    3.48902869   2.24364901  -1.02123964
C    2.64737916   2.29164910  -2.25127912
C    2.89312887   2.61214900   0.30772990
O    3.75433874   3.35177875   1.18676960
H    1.95830929  -1.77896929  -0.84030968
H    3.57855868  -1.50736940  -0.17585994
H    3.12799883  -0.82403970  -1.75804925
H    1.91909921  -0.09932996   0.83519971
H    4.20761871   0.85681969   0.55518979
H    4.50645828   2.55594921  -1.22824955
H    1.59746933   2.05667925  -2.05213928
H    3.02387881   1.58104944  -2.99306893
H    2.68842912   3.29294872  -2.69095898
H    1.82896924   2.82074881   0.35548985
H    3.67312860   4.30736828   1.02205968

