%chk=mol_5120.chk
# wB97XD/Def2SVP opt pop=full gfinput

C 4 H 6 N 2 O 1

1 2
C    2.330750   0.115651  -0.491839
N    4.950893   0.756911  -0.003156
C    6.795531  -1.288226   0.239277
C    6.487884  -2.746169   2.593479
N    6.190762  -3.937622   4.412908
C    5.621822   3.157128   0.754851
O    7.728564   3.785121   1.471416
H    1.215869   1.819409  -0.846446
H    1.551182  -0.855233   1.157741
H    2.230519  -1.119020  -2.145633
H    8.712677  -0.510906   0.158340
H    6.575718  -2.527282  -1.405181
H    4.060246   4.529522   0.611629

