%chk=mol_5465.chk
# wB97XD/Def2SVP opt freq pop=full gfinput

C 4 H 10 N 2 O 1

1 2
C    2.10671926  -0.61625975   0.62029976
O    3.47870874  -0.25991991   0.50963980
N    3.57342887   1.14035952   0.53341979
C    4.81551790   1.47649944   0.42342985
N    5.32616806   2.75700903   0.40415984
C    4.41233826   3.88479853   0.29147989
C    6.68572760   2.98724890  -0.05526998
H    2.03152919  -1.70677936   0.61837977
H    1.54378939  -0.22256991  -0.23171991
H    1.68879938  -0.23557991   1.55748951
H    5.60353804   0.70529974   0.33032990
H    3.56107879   3.77378869   0.97166967
H    4.03547859   3.96986842  -0.73301971
H    4.91220856   4.82316828   0.55465984
H    7.36977720   2.23514915   0.35214987
H    7.05101776   3.96754861   0.26818991
H    6.73049736   2.94281888  -1.14831960

