%chk=mol_5880.chk
# wB97XD/Def2SVP opt pop=full gfinput

C 4 H 8 N 2 O 1

1 2
N    5.986823  -1.926576  -0.911604
C    4.783048   0.116521   0.066481
O    2.619387  -0.064383   0.866496
N    6.147487   2.283356   0.045353
C    5.346999   4.830140   0.654148
C    7.484846   5.741914  -1.071267
C    8.485570   3.024979  -1.151845
H    7.878646  -2.013352  -0.709611
H    5.035175  -3.568578  -0.682928
H    5.572840   5.276115   2.659412
H    3.441097   5.303063   0.014438
H    6.838824   6.453774  -2.905378
H    8.767138   7.125855  -0.226276
H    8.763907   2.257278  -3.047542
H   10.137871   2.655405   0.031237

