%chk=mol_3767.chk
# wB97XD/Def2SVP opt freq pop=full gfinput

C 5 H 10 O 2

1 2
O    0.82274967   0.17770994   0.06409997
C    2.21908927  -0.08721996   0.20006992
C    2.99838877   1.22262955   0.41377982
C    2.47092915   1.99430919   1.63716936
O    1.15048957   2.48570895   1.41891944
C    4.47497845   0.93371964   0.55860978
C    5.41360760   1.39946938  -0.27585989
H    0.39967984  -0.66862977  -0.17194994
H    2.56061912  -0.59176981  -0.71084970
H    2.35283923  -0.77061975   1.04591954
H    2.81715894   1.85345924  -0.46738982
H    3.10504866   2.86022878   1.85377920
H    2.45516896   1.35983956   2.53118920
H    0.66433978   1.77042925   0.95447963
H    4.78152800   0.31421989   1.39930940
H    5.16429806   2.02810931  -1.12487948
H    6.46294737   1.16416955  -0.11999995

