%chk=mol_2684.chk
# wB97XD/Def2SVP opt pop=full gfinput

C 5 H 10 O 2

1 2
C    3.994220  -1.091487  -2.585637
C    4.657948  -0.061700   0.015345
C    6.110108   2.423574  -0.169716
O    8.491182   2.014221  -1.471379
C    4.568848   4.756025  -1.019507
O    5.440012   6.193559   1.147120
C    6.305411   3.886316   2.352728
H    2.928887  -2.855452  -2.405470
H    5.694387  -1.483813  -3.697192
H    2.836687   0.252373  -3.650724
H    5.790669  -1.463536   1.036647
H    2.907438   0.195473   1.094340
H    9.306429   3.666276  -1.485325
H    2.509821   4.559059  -1.011041
H    5.176924   5.619668  -2.795925
H    8.217531   4.098797   3.108826
H    5.022986   3.304640   3.868232

