%chk=mol_1592.chk
# wB97XD/Def2SVP opt freq pop=full gfinput

C 5 H 8 N 2

1 2
C    1.46398938   3.20500875  -0.58697981
C    2.67942905   2.45235920  -0.14854994
N    3.86289859   2.85715890  -0.47479981
N    4.83234787   2.00173926   0.04280999
C    6.01775789   2.39956903  -0.28768989
C    7.22470713   1.66363943   0.13740996
C    8.43880653   2.09593916  -0.21885991
H    0.90088964   3.51322865   0.29734990
H    0.83621967   2.54287910  -1.18838954
H    1.73815930   4.08501863  -1.17370951
H    2.51465917   1.54431939   0.45907983
H    6.18039751   3.30559874  -0.90132964
H    7.07565737   0.77518970   0.73949975
H    8.58454704   2.98643899  -0.82225972
H    9.32648659   1.55476952   0.09370996

