%chk=mol_2906.chk
# wB97XD/Def2SVP opt pop=full gfinput

C 6 H 10 O 1

1 2
C    1.733314  -0.534585  -0.230169
C    4.498058   0.046979  -0.364339
C    5.655308   2.268692   0.126744
C    4.239090   4.662635   0.796349
O    4.350773   5.102506   3.446955
C    8.412551   2.365861  -0.061152
C    9.898914   4.324582   0.539649
H    1.449760  -2.261454   0.874887
H    0.988459  -0.859674  -2.131819
H    0.617903   0.948831   0.670683
H    5.644177  -1.584157  -0.887151
H    2.248415   4.583134   0.250181
H    5.018130   6.310211  -0.184588
H    4.390042   3.451679   4.253868
H    9.348399   0.662273  -0.741718
H    9.173637   6.095349   1.274337
H   11.935661   4.179470   0.331685

