%chk=mol_4731.chk
# wB97XD/Def2SVP opt freq pop=full gfinput

C 5 H 5 N 1 O 1

1 2
C    0.64813977   0.33145988  -0.02483999
C    1.97113931   0.18338993  -0.16736993
N    2.49634910  -1.06100953  -0.39611986
C    3.81051850  -1.39504945  -0.56462979
O    4.17683840  -2.54726887  -0.76543969
C    2.81793880   1.32525957  -0.07898997
C    3.52759862   2.29135919  -0.00366000
H    0.20719992   1.30754960   0.15729994
H   -0.03652998  -0.50770980  -0.08405996
H    1.86690927  -1.85196924  -0.45356983
H    4.52032852  -0.55612975  -0.50737983
H    4.15525866   3.14919877   0.06344998

