%chk=mol_0695.chk
# wB97XD/Def2SVP opt pop=full gfinput

C 5 H 10 O 1

1 2
C    1.907244   0.028667   0.136457
C    4.745461  -0.200311   0.075967
C    5.700548  -2.868453   0.286785
C    6.203914   1.874967  -0.155543
C    9.021760   2.047386  -0.221400
O    9.745223   2.971802  -2.632010
H    1.272390   1.993019  -0.010375
H    1.164865  -0.739488   1.908699
H    1.069925  -1.020754  -1.438195
H    4.884318  -4.034358  -1.216133
H    5.148899  -3.677672   2.109615
H    7.751486  -3.025395   0.129276
H    5.279932   3.710080  -0.300221
H    9.986731   0.254905   0.109529
H    9.676872   3.386994   1.211598
H    8.943431   1.877216  -3.871747

