%chk=mol_2386.chk
# wB97XD/Def2SVP opt pop=full gfinput

C 5 H 6 O 2

1 2
C    1.888309   0.089781   0.026362
C    4.674446  -0.089913   0.017518
C    6.188589  -2.096462  -0.097963
C    8.862947  -1.320389  -0.053290
O    8.775623   1.368729   0.099475
C    6.320737   2.138244   0.143808
O    5.602849   4.322087   0.267699
H    1.012572  -1.779990  -0.106675
H    1.226640   1.216303  -1.577524
H    1.222785   0.981202   1.770069
H    5.567114  -4.037022  -0.209344
H    9.857511  -2.066888   1.597442
H    9.858248  -1.875251  -1.777533

