%chk=mol_4922.chk
# wB97XD/Def2SVP opt freq pop=full gfinput

C 5 H 7 N 1 O 1

1 2
C    1.27933955  -0.56903982  -0.14765994
C    2.77417874  -0.39580986  -0.14236996
O    3.54023862  -1.32836950  -0.36119986
N    3.19472885   0.88569969   0.11136996
C    4.59738827   1.21624959   0.07795997
C    4.78994846   2.61455917   0.47208983
C    4.94597816   3.76153874   0.79336971
H    0.76841974   0.31283990   0.24857990
H    1.01692963  -1.42679942   0.47762984
H    0.94333965  -0.74232972  -1.17331958
H    2.52310896   1.64033937   0.14121994
H    4.96512842   1.04161966  -0.93841964
H    5.13357830   0.53857982   0.75111967
H    5.08877802   4.77762794   1.07933962

