%chk=mol_4770.chk
# wB97XD/Def2SVP opt pop=full gfinput

C 4 H 8 N 2 O 1

1 2
C    2.962391   5.053884  -2.362725
C    5.378614   3.720304  -1.753987
N    7.426964   4.978597  -1.319785
N    9.432587   3.356853  -0.812280
C   11.482316   4.634232  -0.410694
C   13.922652   3.303147   0.245305
O   13.921650   0.719664  -0.436999
H    2.294071   4.413436  -4.209025
H    3.233321   7.100589  -2.394170
H    1.548952   4.560760  -0.940271
H    5.320373   1.634330  -1.693157
H   11.519998   6.721189  -0.428382
H   14.235458   3.475206   2.281032
H   15.474646   4.250731  -0.735349
H   12.168249   0.159493  -0.287975

