%chk=mol_5959.chk
# wB97XD/Def2SVP opt pop=full gfinput

C 5 H 9 N 1 O 1

1 2
O    2.090415   0.055104   0.745327
C    4.730721   0.038777   0.195549
C    5.407433  -2.453620  -1.133930
C    4.946585  -1.917335  -3.884464
N    6.827184  -0.674103  -5.458587
C    4.921055   0.891989  -4.249238
C    5.368561   2.120424  -1.729761
H    1.681705   1.688886   1.481300
H    5.745788   0.269777   1.981926
H    4.231153  -4.022868  -0.478309
H    7.400130  -2.930455  -0.828513
H    3.487433  -3.036280  -4.774072
H    8.536385  -0.555353  -4.573459
H    3.445160   1.718215  -5.393373
H    7.352357   2.690989  -1.560158
H    4.167451   3.787673  -1.496758

