%chk=mol_6397.chk
# wB97XD/Def2SVP opt freq pop=full gfinput

C 4 H 8 N 2 O 1

1 2
O    0.91114962   0.81038964  -0.44812980
N    2.11432910   0.86205965  -1.15304947
C    2.31225920  -0.23807991  -1.95336926
N    1.41757953  -1.07660961  -2.36157918
C    3.22893882   1.31516945  -0.31346989
C    4.25737858   2.27789927  -0.84199971
C    3.28713870   2.72454906   0.21232992
H    0.53682977   1.69305933  -0.62158972
H    3.36207867  -0.36639985  -2.26783895
H    0.53293979  -0.77396971  -1.93364930
H    3.57475853   0.53587979   0.36248985
H    4.12927866   2.66867900  -1.84451938
H    5.29009819   2.12459922  -0.55235982
H    3.66058850   2.87026882   1.21964955
H    2.50825906   3.41844869  -0.07803997

