%chk=mol_3074.chk
# wB97XD/Def2SVP opt freq pop=full gfinput

C 6 H 10 O 1

1 2
C    1.35498953  -0.01062000  -0.12499996
C    2.83922887  -0.27543989   0.07013997
C    3.67846870   0.98221964  -0.09408997
O    3.17095900   2.07294917  -0.36066988
C    5.17239809   0.89145964   0.07366997
C    5.91895771   2.18187904  -0.10351996
C    5.79837751  -0.26116991   0.36211985
H    0.78322965  -0.93542963   0.00074000
H    1.15345955   0.38222983  -1.12735951
H    0.98651958   0.72064978   0.60244977
H    3.16554880  -1.01487958  -0.66853976
H    2.99623895  -0.67425972   1.07769966
H    5.76519823   2.57883906  -1.11244953
H    6.99730730   2.05370927   0.03981999
H    5.57673788   2.92676878   0.62258977
H    5.28215790  -1.20522952   0.49464983
H    6.87865734  -0.29173988   0.47655982

