%chk=mol_6064.chk
# wB97XD/Def2SVP opt pop=full gfinput

C 4 H 7 N 1 O 2

1 2
O    2.537127   0.244833   1.583213
C    4.533906   0.126196   0.405479
C    5.896153  -2.370057  -0.184683
O    7.603521  -2.352067  -2.269637
C    9.253705  -0.214049  -2.132896
C    7.697516   2.212397  -2.256994
N    5.780162   2.292729  -0.304775
H    4.461152  -3.804775  -0.577085
H    6.930779  -2.941982   1.515674
H   10.368814  -0.318967  -0.390720
H   10.555897  -0.307402  -3.737255
H    8.899193   3.882442  -2.048954
H    6.697983   2.324231  -4.066331
H    4.790796   3.904269  -0.010129

