%chk=mol_6905.chk
# wB97XD/Def2SVP opt freq pop=full gfinput

C 6 H 13 N 1

1 2
C    2.30497932  -0.33110988  -1.56556940
C    2.40775895   0.12128995  -0.11602996
C    3.15250897   1.44766951   0.03087999
C    2.44799900   2.63716912  -0.60832977
C    2.95512891   3.84130836   0.17562994
C    3.63434863   3.26175880   1.40833950
N    3.23235869   1.85749936   1.43606949
H    1.81354928  -1.30766952  -1.62127948
H    3.29718876  -0.42479983  -2.01836920
H    1.71800935   0.37329984  -2.16275930
H    2.92978907  -0.65556973   0.45651984
H    1.39772952   0.19857992   0.30574989
H    4.16733837   1.35092950  -0.37809986
H    1.35860956   2.56228900  -0.50051981
H    2.67381883   2.72807884  -1.67564940
H    3.66642880   4.42568827  -0.41803986
H    2.12124920   4.49820852   0.44589984
H    4.72359848   3.34261894   1.31362951
H    3.33261871   3.77992868   2.32314897
H    3.91373873   1.29437947   1.94194925

