%chk=mol_2291.chk
# wB97XD/Def2SVP opt freq pop=full gfinput

C 6 H 12 O 1

1 2
C    1.04876959   0.08907997  -0.08510997
C    2.53794909   0.02902999  -0.02631999
C    3.36602855  -0.71470976  -1.05611968
C    2.75266886  -1.43998945  -2.20540929
C    3.43560863   0.79778969  -0.97879964
C    2.89926910   1.67743945  -2.06348920
O    4.63686800   1.32897949  -0.39240983
H    0.68368971   0.86995965   0.58829981
H    0.62723976  -0.86408967   0.24666990
H    0.65608972   0.29987991  -1.08112955
H    2.86172891  -0.05515998   1.00698960
H    4.22645807  -1.26728952  -0.69004971
H    1.84999931  -0.96334964  -2.59476900
H    2.48516893  -2.45656896  -1.90049922
H    3.47401857  -1.51410949  -3.02565908
H    2.00711918   1.27938950  -2.55253911
H    3.66091847   1.82148933  -2.83689904
H    2.64350915   2.66077900  -1.65491939
H    4.98424816   0.76135969   0.31603989

