%chk=mol_6773.chk
# wB97XD/Def2SVP opt pop=full gfinput

C 5 H 8 N 2

1 2
C    1.791574   0.006368   0.024585
C    4.654924  -0.007275   0.027741
C    5.970873   1.896453   1.799530
N    7.876851  -0.068446   2.385628
C    5.974917  -2.042303   1.675941
C    7.072130  -4.155413   0.311332
N    7.954878  -5.820432  -0.812393
H    1.059248  -1.607514  -1.042222
H    1.074347   1.732369  -0.861734
H    1.022474  -0.093882   1.942827
H    5.394223   0.099664  -1.913178
H    4.863305   2.473765   3.452775
H    6.726745   3.590480   0.887510
H    9.404373  -0.020844   1.203283
H    4.849547  -2.652949   3.309591

