%chk=mol_3932.chk
# wB97XD/Def2SVP opt freq pop=full gfinput

C 4 H 6 N 2 O 1

1 2
C    0.98919964  -0.03990998   0.00596000
C    2.45251918   0.12086996  -0.00042000
C    3.30212879   1.19879961  -0.02984999
C    4.58960819   0.62800974  -0.03854999
N    5.71954775   1.35048950  -0.07790998
N    4.53421831  -0.70321971  -0.00263000
O    3.18718886  -1.02342963   0.01939999
H    0.48772979   0.93239963   0.01674999
H    0.66705978  -0.59905976   0.88928968
H    0.66017979  -0.58220977  -0.88552970
H    3.02938890   2.24196911  -0.05355998
H    5.73306751   2.33985925   0.13025995
H    6.59646749   0.86861962   0.08784997

