%chk=mol_2712.chk
# wB97XD/Def2SVP opt freq pop=full gfinput

C 6 H 8 O 1

1 2
C    0.99999964   0.00000000   0.00000000
C    2.44399905   0.00000000   0.00000000
C    3.63415861   0.00000000   0.00000000
C    5.06204844   0.06224998   0.05501998
O    5.71797800  -0.52961981  -1.07739961
C    5.79208803   0.89669967  -0.96694958
C    7.14770746   1.43278956  -0.68457973
H    0.60597974   1.02086961   0.01162999
H    0.60590976  -0.52051979   0.87824970
H    0.60596979  -0.50030982  -0.88993967
H    5.52096796  -0.08167997   1.02534962
H    5.23525810   1.48834944  -1.67979932
H    7.68784714   0.82741970   0.05130998
H    7.07153702   2.45319915  -0.29266989
H    7.74180746   1.46502948  -1.60273945

