%chk=mol_5096.chk
# wB97XD/Def2SVP opt freq pop=full gfinput

C 4 H 10 N 2 O 1

1 2
C    0.92635965  -0.28169990   0.28375992
N    2.25825906  -0.33702987  -0.32815987
C    2.32960892  -1.47514951  -1.24768949
C    2.55951905   0.91004968  -1.05795968
C    2.73908901   2.04762912  -0.08060998
N    1.98669922   3.10171890  -0.13534996
O    2.37909889   3.98860860   0.87481970
H    0.86825967   0.51196980   1.03624964
H    0.70932972  -1.21784961   0.81117970
H    0.13630995  -0.11528996  -0.45781985
H    2.13899922  -2.41385913  -0.71477973
H    3.33374858  -1.55998945  -1.67850935
H    1.60764945  -1.39101946  -2.06844926
H    1.78446925   1.15623963  -1.79274929
H    3.51741886   0.81233966  -1.58284938
H    3.54321861   1.94190919   0.66950977
H    1.75510943   4.72951794   0.75690967

