%chk=mol_6621.chk
# wB97XD/Def2SVP opt freq pop=full gfinput

C 3 H 6 O 3 S 1

1 2
C    1.34020960  -0.34472987   0.00380000
O    2.69199920   0.06898998   0.04288998
S    2.97989893   1.66936934  -0.05054998
O    2.53732920   2.12852931  -1.35178959
O    2.48358917   2.27972913   1.16611958
C    4.71335840   1.63879943   0.01028000
C    5.42712831   1.21271956  -1.04111958
H    1.30726945  -1.43322945   0.09930996
H    0.88107961  -0.06448998  -0.94856966
H    0.77887976   0.09503996   0.83343971
H    5.17530823   1.97692931   0.92627966
H    4.95077801   0.87956971  -1.95972919
H    6.51132727   1.19521952  -1.00376964

