%chk=mol_4143.chk
# wB97XD/Def2SVP opt freq pop=full gfinput

C 4 H 4 N 2 O 1

1 2
C    1.06199956  -0.03535999  -0.15305994
C    2.37175918  -0.00990000   0.06513998
N    3.20641875  -1.06080961   0.22526991
C    4.49067831  -0.60437977   0.43070984
O    5.45493793  -1.33084941   0.60607976
N    4.49691868   0.78381968   0.40430984
C    3.26741886   1.14587951   0.19185993
H    0.51876980  -0.97153962  -0.22526991
H    0.49286982   0.88172966  -0.26622990
H    2.97840905  -2.04095912   0.20657992
H    2.89094901   2.17438912   0.10866996

