%chk=mol_2105.chk
# wB97XD/Def2SVP opt freq pop=full gfinput

C 4 H 5 N 3

1 2
N    1.86164927  -0.82198972   0.38273984
C    2.39533901   0.25111991  -0.08834997
N    3.01872897   1.22208953   0.65374976
C    4.12571859   1.94938934   0.02263999
C    2.80274916   2.61832905   0.23673992
C    2.68824887   3.62273860   1.25270951
N    2.60623908   4.46587849   2.04677916
H    1.46427941  -1.38379955  -0.37666985
H    2.37146902   0.44571984  -1.17668951
H    4.40122843   1.61619937  -0.96821964
H    4.93992805   2.13507938   0.71119976
H    2.14891911   2.73932886  -0.61884975

