%chk=mol_4802.chk
# wB97XD/Def2SVP opt freq pop=full gfinput

C 4 H 7 N 1 O 2

1 2
C   -0.70261973   1.96357930   1.65926945
C   -0.59992975   0.59896976   1.05491960
N    0.26567990   0.35065988   0.13091995
O    0.14759994  -0.99689960  -0.25844991
C    1.04591954  -1.28367949  -1.25884950
C    0.89864963  -2.72714901  -1.64134943
O    1.86106932  -0.52644980  -1.77074933
H   -0.54077977   1.88613939   2.73772907
H   -1.70908940   2.35282898   1.48401940
H    0.03493999   2.64278889   1.22460949
H   -1.29499948  -0.16983993   1.43378949
H    1.24670959  -3.36211872  -0.82388973
H    1.50190949  -2.92869902  -2.53054905
H   -0.14511995  -2.94464874  -1.88082933

