%chk=mol_5508.chk
# wB97XD/Def2SVP opt freq pop=full gfinput

C 4 H 6 N 2 O 1

1 2
N    0.97938967  -0.04369998  -0.02261999
C    2.32977915   0.04358998   0.00125000
C    3.17145872   1.13145959  -0.07569997
C    4.50619841   0.64445978  -0.00058000
C    4.44037819  -0.72927976   0.10705996
N    3.12393880  -1.07042956   0.10280996
O    2.64826918  -2.37267923   0.12046996
H    0.43810984   0.80750966   0.11493996
H    0.53493983  -0.84653968   0.42167985
H    2.86695910   2.16483927  -0.17131993
H    5.41378784   1.23421955  -0.02791999
H    5.21037817  -1.48418939   0.18071993
H    2.09620905  -2.31618905  -0.67828977

