%chk=mol_5802.chk
# wB97XD/Def2SVP opt pop=full gfinput

C 4 H 8 N 2 O 1

1 2
N    5.961651  -2.258582   0.240600
C    4.277603  -0.085718  -0.286350
C    5.716573   2.429621  -0.201067
O    4.617886   4.471848  -0.110171
N    8.310354   2.127756  -0.289374
C   10.014850   4.061929  -0.221174
C   12.501842   3.650649  -0.269437
H    4.936815  -3.875847  -0.011225
H    6.397233  -2.229726   2.123806
H    2.768052  -0.034620   1.127600
H    3.452643  -0.291793  -2.169538
H    8.905070   0.301033  -0.409617
H    9.245202   5.971629  -0.115160
H   13.300591   1.765420  -0.364396
H   13.811782   5.230063  -0.207624

