%chk=mol_0614.chk
# wB97XD/Def2SVP opt pop=full gfinput

C 5 H 8 O 1

1 2
C    2.099977  -0.080635   0.184607
C    4.593811   0.029045  -0.181451
C    6.192822   2.344205   0.031010
C    8.385678   1.591263  -1.625864
C    8.502369  -1.238640  -1.216492
O    5.935800  -2.080192  -0.967729
H    1.088274  -1.845072  -0.072471
H    1.024723   1.572649   0.740319
H    6.801502   2.616118   1.988748
H    5.258938   4.059623  -0.646494
H    7.947186   2.002505  -3.609793
H   10.152195   2.549978  -1.144645
H    9.399346  -2.217235  -2.802199
H    9.521649  -1.717232   0.522585

