%chk=mol_4664.chk
# wB97XD/Def2SVP opt pop=full gfinput

C 5 H 11 N 1 O 1

1 2
C    2.111051   0.264486   0.272064
C    4.945923  -0.005083  -0.179203
N    5.436761  -1.110101  -2.658599
C    6.242181   2.515887  -0.104842
C    7.179089   3.579916   2.369093
C    9.033760   2.670637   0.427758
O   10.364864   4.620267  -0.903100
H    1.745767   1.097912   2.132386
H    1.167322  -1.577165   0.204053
H    1.225091   1.494358  -1.139940
H    5.735130  -1.263528   1.264813
H    4.588916  -0.040818  -4.016556
H    4.593319  -2.838236  -2.758074
H    5.459910   3.850147  -1.450762
H    6.968668   2.464940   4.072567
H    7.024358   5.600751   2.666460
H   10.041513   0.926873   0.819499
H   10.803564   4.048663  -2.595199

