%chk=mol_2216.chk
# wB97XD/Def2SVP opt pop=full gfinput

C 5 H 8 O 2

1 2
C   -2.310152  -1.397434  -0.937266
O   -2.188208   1.326588  -0.981297
C   -0.008145   1.918393   0.529936
C   -0.028535  -0.077460   2.577624
C   -0.005083  -2.154401   0.616278
C    2.335021  -1.393276  -0.886641
O    2.207295   1.330972  -0.932126
H   -2.282562  -2.124714  -2.873423
H   -4.084227  -1.949158  -0.024207
H   -0.016630   3.886675   1.151240
H   -1.744595  -0.066613   3.731831
H    1.661315  -0.062966   3.770004
H   -0.009883  -4.102728   1.283653
H    4.088214  -1.940465   0.067123
H    2.350914  -2.119800  -2.820530

