%chk=mol_4653.chk
# wB97XD/Def2SVP opt pop=full gfinput

C 4 H 5 N 1 O 2

1 2
C    1.900894  -3.447957   2.694976
C    3.697476  -3.539344   0.915780
C    5.962350  -1.892353   1.069283
O    6.356434  -0.377548   2.765709
O    7.428494  -2.420248  -0.998002
N    9.625623  -0.917368  -0.981089
C   10.970540  -1.461250  -2.935709
H    0.244644  -4.650711   2.585126
H    2.044117  -2.170842   4.299675
H    3.552288  -4.811658  -0.680623
H   12.776079  -0.476154  -3.257491
H   10.409840  -2.892282  -4.345217

