%chk=mol_0787.chk
# wB97XD/Def2SVP opt freq pop=full gfinput

C 5 H 10 O 1

1 2
C    1.47591949   0.43047985  -0.77451968
C    2.77371883  -0.12814994  -0.22044991
O    3.83810854   0.72384977  -0.64135975
C    5.12119818   0.39924985  -0.26261988
C    6.13911772   1.37735951  -0.77386969
C    5.48339796  -0.66056973   0.47873980
H    0.62625974  -0.19222993  -0.48045981
H    1.51440942   0.48275983  -1.86774933
H    1.30904949   1.45040941  -0.41233984
H    2.92383885  -1.14175963  -0.60909981
H    2.71931911  -0.15116994   0.87386966
H    5.93349791   2.37713909  -0.37715986
H    6.10087776   1.42472947  -1.86727929
H    7.15991735   1.10485959  -0.48576981
H    4.77675819  -1.38510954   0.86338973
H    6.52625751  -0.83452970   0.72678971

