%chk=mol_4747.chk
# wB97XD/Def2SVP opt freq pop=full gfinput

C 4 H 12 N 2 O 1

1 2
C    4.10304832  -1.31890953   0.92476964
C    3.29831886  -0.62506974  -0.17686993
N    1.86876941  -0.93188965   0.01368999
C    3.48675871   0.91303968  -0.19759993
O    3.10370874   1.47450948   1.07159960
C    4.93035793   1.35289955  -0.51016980
N    5.02501822   2.82118893  -0.46999982
H    5.17856836  -1.18247950   0.77513969
H    3.91761851  -2.39946914   0.92159963
H    3.84654856  -0.93955970   1.92008924
H    3.60293865  -1.03581965  -1.14574957
H    1.53925943  -0.34732988   0.78931969
H    1.75464940  -1.89500928   0.32338989
H    2.81429911   1.34508955  -0.95109969
H    3.52016878   2.36166930   1.07375956
H    5.24466801   0.98288965  -1.49086952
H    5.62105799   0.96890968   0.24620990
H    4.46183825   3.21469879  -1.22571957
H    5.98728800   3.09491897  -0.67214972

