%chk=mol_4829.chk
# wB97XD/Def2SVP opt pop=full gfinput

C 5 H 13 N 1 O 1

1 2
C    7.271534   6.543158  -6.026110
C    7.370801   4.249049  -4.314736
O    9.305239   4.639353  -2.479604
C    9.485840   2.568232  -0.763166
C   11.640694   3.044557   1.090164
C   11.176294   5.398381   2.695675
N   13.213570   5.719313   4.533453
H    5.820413   6.317165  -7.479442
H    9.099561   6.845722  -6.947295
H    6.859951   8.250223  -4.931241
H    7.798635   2.557385  -5.429070
H    5.546705   3.996809  -3.368380
H    9.866128   0.829401  -1.821998
H    7.695475   2.349081   0.255151
H   13.408703   3.281415   0.032711
H   11.856992   1.383695   2.310644
H    9.381639   5.224526   3.711951
H   11.066406   7.087210   1.504071
H   14.879665   5.956795   3.594486
H   12.921777   7.352433   5.512633

