%chk=mol_0559.chk
# wB97XD/Def2SVP opt freq pop=full gfinput

C 4 H 2 N 2

1 2
N    0.99999964   0.00000000   0.00000000
C    2.15100908   0.00000000   0.00000000
C    3.55700850   0.00000000   0.00000000
C    4.21402836   1.13798952   0.00000000
C    5.62002802   1.13798952   0.00000000
N    6.77103758   1.13798952   0.00000000
H    4.05724859  -0.96320963  -0.00000000
H    3.71378851   2.10119915  -0.00000000

