%chk=mol_5970.chk
# wB97XD/Def2SVP opt freq pop=full gfinput

C 5 H 7 N 1 O 1

1 2
O    1.43078935   0.32869989   0.82676971
C    2.43021894   0.00109000   0.20759991
C    2.84241915  -1.40780950  -0.15053995
C    4.10417843  -1.26523960  -1.01837969
C    4.50854874   0.17722994  -0.97061962
N    3.67162848   1.16423953  -1.63822937
C    3.48225880   0.95411962  -0.20214993
H    2.04032922  -1.91677928  -0.69106972
H    3.07012892  -1.95027936   0.77225971
H    4.90276814  -1.90964925  -0.63571978
H    3.89938855  -1.57476938  -2.04968929
H    5.56284809   0.37773988  -0.85827971
H    4.17976856   2.03517914  -1.80366933
H    3.78693867   1.73263931   0.48173982

