%chk=mol_6510.chk
# wB97XD/Def2SVP opt freq pop=full gfinput

C 5 H 3 N 1 S 1

1 2
C    0.85239965   0.14306995  -0.00343000
C    2.05093932   0.07210997  -0.00045000
C    3.47175860  -0.01223000   0.00311000
C    4.34743834   1.05386961   0.00311000
N    5.69271803   0.72831976   0.00698000
C    5.81438780  -0.58112979   0.00985000
S    4.35314846  -1.48011947   0.00811000
H   -0.21107993   0.20300993  -0.00607000
H    4.06022835   2.09860921   0.00036000
H    6.77915764  -1.07146955   0.01313999

