%chk=mol_6295.chk
# wB97XD/Def2SVP opt pop=full gfinput

C 4 H 8 N 2 O 1

1 2
O    5.463576  -2.003393   1.192946
C    4.522398   0.026702   0.616485
N    5.826819   2.170842   0.004252
C    8.542299   2.169689  -0.258477
C    9.498387   4.818669   0.017310
C   11.312146   5.920871  -1.877878
N    8.681516   6.759475  -1.788342
H    2.463598   0.324353   0.545375
H    4.886151   3.649477  -0.764791
H    8.982152   1.375116  -2.119441
H    9.387781   0.939742   1.175410
H    9.624337   5.404333   1.975614
H   11.840740   4.809523  -3.513020
H   12.724527   7.247685  -1.222539
H    8.552277   8.484473  -0.927402

