%chk=mol_6360.chk
# wB97XD/Def2SVP opt freq pop=full gfinput

C 5 H 3 N 1 O 1

1 2
O    0.94377965   0.07078997  -0.00000000
N    2.34610915  -0.01679999  -0.00000000
C    2.92855883   1.14016950  -0.00000000
C    2.16944933   2.35997915  -0.00000000
C    1.55670941   3.39382863  -0.00000000
C    4.36197853   1.06540954   0.00000000
C    5.56226778   1.02153969   0.00000000
H    0.67485976  -0.86673963  -0.00000000
H    1.01195967   4.30902815  -0.00000000
H    6.62733793   0.98489964  -0.00000000

