%chk=mol_2819.chk
# wB97XD/Def2SVP opt pop=full gfinput

C 6 H 8 O 1

1 2
C    1.889726   0.000000   0.000000
C    4.618491   0.000000   0.000000
C    6.867567   0.000000   0.000000
C    9.596332   0.000000   0.000000
C   10.636324  -1.459662  -2.254575
C   10.599946   2.674567  -0.104199
O   12.386342   3.425469   1.174635
H    1.145193   1.929184   0.021864
H    1.145042  -0.983546   1.659690
H    1.145212  -0.945562  -1.681705
H   10.298969  -0.864569   1.746731
H   10.017060  -0.631187  -4.050496
H   10.007574  -3.432196  -2.220031
H   12.706972  -1.446888  -2.248888
H    9.728461   3.923544  -1.531718

