%chk=mol_5609.chk
# wB97XD/Def2SVP opt freq pop=full gfinput

C 5 H 11 N 1 O 1

1 2
N    2.13905931  -0.39744985  -1.38719940
C    2.37867904   0.04812998  -0.01701999
C    3.18464899   1.33741951  -0.01522999
C    2.46222901   2.62647891  -0.48673981
C    3.21137881   3.37781882   0.63082981
C    3.33161879   2.02651930   1.37284946
O    4.56271839   1.78583932   2.07863927
H    1.58635950  -1.25445962  -1.36765957
H    3.02586889  -0.64981973  -1.82281935
H    2.91812873  -0.73458976   0.52760983
H    1.41410947   0.19109993   0.48245984
H    4.15894842   1.20156956  -0.50847983
H    1.37443948   2.61513901  -0.35006988
H    2.68811893   2.95097876  -1.50585949
H    4.16974831   3.80512857   0.31415990
H    2.63110900   4.14946842   1.14367962
H    2.47932911   1.84389937   2.04002929
H    5.27140808   2.03111935   1.45966947

