%chk=mol_3727.chk
# wB97XD/Def2SVP opt freq pop=full gfinput

C 6 H 8 O 1

1 2
O    2.70079899  -0.77043968   1.10233963
C    2.36229897  -0.00323000  -0.05484998
C    2.92738891   1.43281937   0.00000000
C    2.42244911   2.18051910   1.21221960
C    1.69836926   3.30712867   1.17215955
C    4.37138844   1.43281937   0.00000000
C    5.56154823   1.43281937   0.00000000
H    2.36886930  -1.67165935   0.95324963
H    1.26944959   0.02347999  -0.12801994
H    2.75136876  -0.53131980  -0.93296969
H    2.58216906   1.94646919  -0.90722966
H    2.67176890   1.74823928   2.18191934
H    1.42330945   3.77942848   0.23461992
H    1.37094939   3.78547859   2.09049916
H    6.62686729   1.43192947   0.01043000

