%chk=mol_4481.chk
# wB97XD/Def2SVP opt freq pop=full gfinput

C 4 H 8 N 2 O 1

1 2
C    0.83601969  -0.06923997  -0.12946995
C    2.31465912   0.01810999  -0.30009988
C    3.05932879   1.06154954   0.08793997
N    4.41414833   1.06808960  -0.09844996
C    5.03038836   2.14989924   0.25492990
N    6.38610744   2.33859897   0.13728996
O    7.09646749   1.13360953   0.04922998
H    0.58221978  -0.94273961   0.47878984
H    0.35370985  -0.17802994  -1.10578966
H    0.42195985   0.81836969   0.35899985
H    2.80558896  -0.82907969  -0.77261972
H    2.57811904   1.91541922   0.56245983
H    4.52626801   3.03846884   0.67678970
H    6.81510735   3.01914883   0.75991970
H    6.43671751   0.51804978  -0.34391987

