%chk=mol_6945.chk
# wB97XD/Def2SVP opt pop=full gfinput

C 6 H 13 N 1

1 2
C    4.344801  -0.903951  -2.933781
C    4.618472  -0.031521  -0.211045
C    6.143424   2.401861  -0.080049
C    4.844483   4.867784  -0.950835
N    6.067533   6.189892   1.193702
C    6.244997   3.724367   2.535578
C    8.668703   3.450508   4.039403
H    3.278486  -2.673698  -3.018535
H    6.196582  -1.221840  -3.800031
H    3.346932   0.506031  -4.072001
H    5.571763  -1.509475   0.883088
H    2.738856   0.227769   0.620303
H    8.027500   2.164870  -0.927988
H    2.775875   4.863909  -0.831725
H    5.397511   5.556173  -2.819812
H    7.782554   6.940794   0.729831
H    4.580394   3.359725   3.722609
H   10.345174   3.855571   2.894985
H    8.850457   1.520455   4.761807
H    8.674542   4.732611   5.663528

