%chk=mol_2417.chk
# wB97XD/Def2SVP opt pop=full gfinput

C 5 H 10 O 2

1 2
C    1.825532   0.117484   0.243756
C    4.689280   0.033864  -0.105862
C    5.646048  -2.504435  -1.088482
C    5.130077  -2.768562  -3.899204
O    6.112300  -0.639011  -5.211619
C    5.023572   1.637920  -4.294516
O    5.539524   2.043739  -1.689718
H    1.242344   1.987576   0.913097
H    1.210294  -1.296012   1.623483
H    0.805118  -0.225350  -1.521135
H    5.536255   0.364679   1.755839
H    4.837170  -4.086967  -0.028951
H    7.702146  -2.551395  -0.819291
H    6.066739  -4.459225  -4.636443
H    3.106993  -2.959424  -4.299146
H    5.872532   3.202557  -5.346678
H    2.987884   1.683028  -4.673841

