%chk=mol_6737.chk
# wB97XD/Def2SVP opt pop=full gfinput

C 5 H 8 N 2

1 2
C    1.794049   0.068975   0.080105
C    4.618604   0.110776   0.025474
C    5.932530   2.276440   0.133755
C    8.709351   2.030511  -0.132243
N   10.005439  -0.045712  -0.006009
N    8.640546  -2.138433   0.585683
C    5.987881  -2.378636  -0.171228
H    1.069434  -1.861153   0.208531
H    1.024345   0.911302  -1.642040
H    1.074253   1.110535   1.713396
H    5.106758   4.139709   0.256587
H    9.717539   3.810652  -0.527498
H    9.622826  -3.745418   0.177634
H    5.100352  -3.776712   1.071531
H    5.865880  -3.075813  -2.117722

