%chk=mol_5195.chk
# wB97XD/Def2SVP opt freq pop=full gfinput

C 4 H 7 N 1 O 2

1 2
C    1.42767942  -0.53690982  -0.00056000
N    2.82280898  -0.21687992   0.13672996
C    3.65425849  -0.11240996  -0.95058966
O    3.33328867  -0.34186986  -2.10793924
C    5.04019833   0.29957989  -0.62811977
C    5.44598770   1.74430931  -0.73777968
O    5.19048786   1.13616955   0.53636980
H    1.06416965  -0.92296964   0.95409966
H    1.28317952  -1.28362954  -0.78523970
H    0.88383967   0.37523985  -0.26165989
H    3.17426872   0.13659996   1.02031958
H    5.79850769  -0.45069984  -0.81148970
H    4.72300816   2.45786905  -1.11232960
H    6.47458744   1.96665931  -0.99015963

