%chk=mol_6505.chk
# wB97XD/Def2SVP opt pop=full gfinput

C 5 H 5 N 1 S 1

1 2
C    5.302723  -2.222412   0.700654
C    4.338811   0.073397   0.231737
C    5.685222   2.422629   0.033505
N    4.440252   4.565899  -0.444256
S    6.453604   6.952888  -0.568071
C    9.092210   5.192174   0.018217
C    8.371789   2.704916   0.312580
H    4.063554  -3.855457   0.801943
H    7.302941  -2.555477   0.992975
H    2.301970   0.207341  -0.034355
H   10.955347   6.021631   0.114820
H    9.692897   1.197595   0.701958

