%chk=mol_1743.chk
# wB97XD/Def2SVP opt freq pop=full gfinput

C 7 H 6

1 2
C    0.99999964   0.00000000   0.00000000
C    2.19015908   0.00000000   0.00000000
C    3.59615874   0.00000000   0.00000000
C    4.37592840  -1.09210968   0.00506000
C    5.81747818  -0.67736977   0.00712000
C    5.71238756   0.82067966   0.00241000
C    4.42075825   1.18352950  -0.00169000
H   -0.06487998  -0.00025000   0.00000000
H    4.03273869  -2.11542916   0.00860000
H    6.33483744  -1.04082966  -0.88551968
H    6.33037758  -1.03535962   0.90455961
H    6.55619764   1.49412942   0.00261000
H    4.03892851   2.19283915  -0.00530000

