%chk=mol_5594.chk
# wB97XD/Def2SVP opt pop=full gfinput

C 4 H 4 N 2 O 1

1 2
N    2.067587  -0.152369   0.565614
C    4.430104  -0.155279   0.013984
N    6.065756  -2.101319  -0.368345
C    8.427744  -1.219100  -0.949398
C    8.606134   1.315590  -0.996490
C    6.025392   2.234658  -0.370481
O    5.281747   4.387264  -0.192790
H    1.482981   1.703305   0.697838
H    5.572424  -3.941175  -0.284668
H    9.930208  -2.557329  -1.318065
H   10.196414   2.511333  -1.389705

