%chk=mol_6044.chk
# wB97XD/Def2SVP opt freq pop=full gfinput

C 5 H 9 N 1 O 1

1 2
O    0.92745966  -0.02531999  -0.07428998
C    2.33251905  -0.04534999   0.15904994
C    3.03993893   1.24823952  -0.33560988
N    3.33298874   1.24325955  -1.77701926
C    4.17528868   0.10004996  -2.14123917
C    3.71823859  -1.19969952  -1.54696941
C    2.86396885  -1.27458954  -0.51489979
H    0.62854981   0.89373964  -0.00024000
H    2.47981906  -0.13070995   1.24126959
H    2.40980911   2.11832929  -0.12073996
H    3.98016858   1.38201940   0.21467993
H    3.81370854   2.10244918  -2.03467917
H    5.21324825   0.28384990  -1.83620930
H    4.17143869   0.01050000  -3.23303866
H    4.09452820  -2.11329913  -2.00085926
H    2.52940893  -2.23725915  -0.14352995

