%chk=mol_0862.chk
# wB97XD/Def2SVP opt pop=full gfinput

C 4 H 4 O 2

1 2
O    1.920888  -0.257248  -0.005783
C    4.386999   0.119242   0.003590
C    5.916543   2.218274   0.006066
C    8.430465   1.292403   0.017934
C    8.246879  -1.301776   0.021826
O    5.783545  -2.026826   0.013096
H    1.139940   1.400986  -0.011981
H    5.315176   4.167640   0.000094
H   10.161737   2.375915   0.023036
H    9.610750  -2.822797   0.030084

