%chk=mol_4948.chk
# wB97XD/Def2SVP opt freq pop=full gfinput

C 4 H 9 N 1 O 2

1 2
C    0.85065967  -0.12190995   0.01961999
C    2.36176920  -0.19986992  -0.05848997
O    2.90105891   1.07564962   0.28642988
N    4.29517841   1.02354956   0.13267995
C    4.79265833   2.14801908   0.51270980
O    6.11508751   2.43651891   0.48910981
C    6.97048759   1.40498948  -0.01439999
H    0.39737985  -1.08860958  -0.21838991
H    0.46790981   0.62886977  -0.68010980
H    0.53003979   0.18284993   1.02082968
H    2.67060900  -0.47003984  -1.07393968
H    2.73654890  -0.95277965   0.64436978
H    4.21591854   3.00257874   0.90013969
H    8.00224686   1.75484931   0.06316998
H    6.74872732   1.20955944  -1.06857967
H    6.86914730   0.49290982   0.58223975

