%chk=mol_2062.chk
# wB97XD/Def2SVP opt freq pop=full gfinput

C 6 H 9 N 1

1 2
N    0.95286965   0.19687992  -0.05683998
C    2.38671923  -0.08714996   0.01995999
C    3.21379876   1.19624949  -0.13197996
C    4.70169783   0.93807966  -0.04477998
C    5.44800806   1.42403948   0.95952964
C    5.34385777   0.18415993  -1.07506955
C    5.87560749  -0.45374984  -1.93974924
H    0.43641984  -0.67970979   0.01052000
H    0.73235977   0.58398980  -0.97403961
H    2.64421892  -0.80799973  -0.76419973
H    2.60078883  -0.55950981   0.98531961
H    2.90786910   1.91480935   0.64023972
H    2.99258900   1.67229927  -1.09650958
H    5.00864840   2.01347923   1.75811934
H    6.51877785   1.24804950   1.01072967
H    6.35058737  -1.02133965  -2.70727897

