%chk=mol_0421.chk
# wB97XD/Def2SVP opt freq pop=full gfinput

C 4 H 10 N 2

1 2
C    0.98536962  -0.22514991   0.12073996
C    2.50121903  -0.13815995   0.21365991
C    2.97793889   1.31327951   0.16227995
N    4.43985844   1.37213945   0.24629991
N    4.96981812   2.61768913   0.19569993
C    6.25734758   2.63443899   0.29470989
H    0.66132975  -1.26875961   0.17599994
H    0.62730980   0.19200993  -0.82553971
H    0.50991982   0.32273990   0.93994963
H    2.94207883  -0.71043974  -0.61214978
H    2.83171892  -0.60973978   1.14746964
H    2.54051900   1.87541926   0.99559963
H    2.64265895   1.78043926  -0.77150971
H    4.84089804   0.75662971  -0.46565983
H    6.79071712   3.59718847   0.26248989
H    6.87563705   1.72758937   0.41793984

