%chk=mol_2189.chk
# wB97XD/Def2SVP opt freq pop=full gfinput

C 6 H 10 O 1

1 2
C    1.90501928   0.15739994  -0.73199975
O    1.63893938  -0.08441997   0.65459979
C    0.49675983   0.05316998  -0.20202993
C   -0.35950989   1.24667954   0.09499997
C   -1.78313935   0.72537971  -0.12394996
C   -1.69127941  -0.75587976   0.23414992
C   -0.33723989  -1.18314958  -0.33658987
H    2.28828931   1.13245952  -1.00510955
H    2.30335927  -0.66349977  -1.31508946
H   -0.23066992   1.56928933   1.13419962
H   -0.14468995   2.09294915  -0.56467974
H   -2.51914907   1.26131952   0.48197982
H   -2.06274939   0.83475971  -1.17868948
H   -2.51893902  -1.34142947  -0.17557994
H   -1.69198930  -0.87440968   1.32438958
H   -0.43863982  -1.44800949  -1.39511943
H    0.06942997  -2.04521918   0.20193993

