%chk=mol_2922.chk
# wB97XD/Def2SVP opt pop=full gfinput

C 6 H 10 O 1

1 2
C    0.500305  -0.241072  -0.882767
C    3.153273  -1.063254  -0.305380
C    3.637269  -3.852131  -0.509395
C    4.942257   0.615087   0.344762
O    7.385447  -0.060566   0.888889
C    9.109538   1.776059   1.496984
C   11.497963   1.212429   2.075505
H    0.257078   1.806314  -0.692263
H   -0.833086  -1.155038   0.409957
H   -0.006198  -0.757119  -2.822174
H    2.408777  -4.887588   0.795613
H    5.591341  -4.362338  -0.062928
H    3.245340  -4.505882  -2.433665
H    4.561100   2.619179   0.483222
H    8.410793   3.694679   1.472286
H   12.146347  -0.732326   2.083423
H   12.842617   2.683638   2.550526

