%chk=mol_2848.chk
# wB97XD/Def2SVP opt pop=full gfinput

C 6 H 12 O 1

1 2
C    1.748129  -0.264240   0.577387
C    4.542297  -0.096093   1.245745
C    5.660089   2.579892   0.939345
C    4.406615   4.465007   2.744695
C    8.526331   2.555136   1.419808
C   10.051661   1.360943  -0.682153
O    9.200566   0.707117  -2.734642
H    1.121912  -2.234771   0.649272
H    1.396716   0.449452  -1.331218
H    0.581507   0.804759   1.906488
H    5.564979  -1.423398   0.027250
H    4.809920  -0.757686   3.192466
H    5.306181   3.228011  -0.998890
H    4.583285   3.848786   4.712977
H    2.396721   4.697330   2.317787
H    5.280046   6.334608   2.579722
H    8.963954   1.543642   3.173209
H    9.244692   4.488591   1.615943
H   12.088654   1.158515  -0.275938

