%chk=mol_6597.chk
# wB97XD/Def2SVP opt freq pop=full gfinput

C 4 H 6 N 2 S 1

1 2
C    2.84639883  -1.28111947   0.48408982
N    2.37757921  -0.01344999  -0.03590999
C    3.14519882   1.11146963  -0.00616000
C    2.70796895   2.41405892  -0.20146993
N    3.66133881   3.41219878  -0.13009995
C    4.82914782   2.86107898   0.10667995
S    4.84754801   1.15635955   0.26030990
H    2.07061934  -2.04050922   0.34249988
H    3.05668902  -1.21336961   1.55645943
H    3.74116850  -1.62684941  -0.04347998
H    1.36593950   0.09281997  -0.02958999
H    1.68074942   2.69139910  -0.40185982
H    5.73420763   3.44560862   0.20027992

