%chk=mol_5832.chk
# wB97XD/Def2SVP opt freq pop=full gfinput

C 4 H 4 N 2 O 1

1 2
N    0.98069966  -0.03587999  -0.06906997
C    2.34906912  -0.10961996  -0.11603995
N    2.96754885  -1.24580956  -0.12173995
C    3.16361880   1.19370961  -0.13192995
O    2.57973886   2.22477937   0.19175993
C    4.55709791   1.23583949  -0.51757979
C    5.71370792   1.27736950  -0.83741969
H    0.64018977   0.88688970   0.20434992
H    0.51250982  -0.78412968   0.42571983
H    2.27790904  -2.00117922  -0.13698995
H    6.74037743   1.31077957  -1.12002957

