%chk=mol_5278.chk
# wB97XD/Def2SVP opt freq pop=full gfinput

C 5 H 11 N 1 O 1

1 2
C    1.55116951  -0.59579980  -0.99462968
O    2.27381897  -0.08591997   0.11714996
C    3.03275895   1.13886952  -0.08071996
C    4.26901865   0.86933964  -0.93598962
C    2.22930908   2.41823912  -0.44474983
N    2.99286890   3.18178868   0.56421977
C    3.35043883   1.91053927   1.23155951
H    0.91541964  -1.41373956  -0.64544976
H    2.24029922  -0.98842961  -1.74653935
H    0.91558963   0.17702994  -1.43470955
H    4.91138840   1.75319934  -1.01561964
H    3.98957849   0.57976979  -1.95391929
H    4.86843777   0.06079998  -0.50430977
H    1.15774953   2.36264896  -0.21887991
H    2.34460902   2.78197885  -1.47058952
H    3.79949856   3.67168856   0.17662993
H    4.38492823   1.86068928   1.58582938
H    2.69011903   1.66310942   2.07155919

