%chk=mol_3501.chk
# wB97XD/Def2SVP opt freq pop=full gfinput

C 6 H 8 O 1

1 2
O    1.03432965   0.02808999  -0.04912998
C    2.23260903   0.01433000   0.02481999
C    3.47955871   1.05344963   0.08221997
C    4.06405830   0.02643999  -0.97169960
C    3.45820880  -1.05042958   0.01864999
C    4.23402834  -0.81680965   1.31495953
C    4.25523806   0.72583973   1.35804951
H    3.32032871   2.08013916  -0.23492992
H    5.15316820   0.01941999  -1.08550954
H    3.61425877   0.06173997  -1.97179925
H    3.27871871  -2.05264926  -0.36011985
H    3.71379852  -1.23564959   2.18181920
H    5.24514771  -1.23324955   1.27068949
H    5.27765799   1.11522961   1.32801950
H    3.75412846   1.11043966   2.25138903

