%chk=mol_5332.chk
# wB97XD/Def2SVP opt freq pop=full gfinput

C 5 H 13 N 1 O 1

1 2
C    1.88602936  -0.06320997   1.85954928
O    3.04492879   0.75531971   1.77722943
C    3.00979900   1.70394933   0.70518976
C    1.97693920   2.79988885   0.96154964
C    4.42572832   2.27787900   0.53314978
C    4.97927809   2.94467878   1.79398930
N    6.31838751   3.47527862   1.53811944
H    2.07403922  -0.84417969   2.60123897
H    1.67474937  -0.54073977   0.89837968
H    1.02353966   0.51961982   2.19292927
H    2.75338912   1.18068957  -0.22499992
H    2.06459928   3.20511866   1.97480929
H    0.96092963   2.40118909   0.87263966
H    2.07447934   3.61570859   0.23859991
H    4.42948866   2.99063897  -0.30123988
H    5.09748793   1.45472944   0.25468990
H    5.03148794   2.22742915   2.61996913
H    4.33623838   3.77218866   2.10825920
H    6.94000769   2.70685887   1.28736949
H    6.68999767   3.86445856   2.40395927

