%chk=mol_3389.chk
# wB97XD/Def2SVP opt freq pop=full gfinput

C 6 H 14 O 1

1 2
C    1.50323939  -0.41697985   0.72091973
O    2.83482885   0.06102998   0.85098970
C    3.03678870   1.37203956   0.31036988
C    2.34864926   2.43022919   1.17448962
C    4.55933809   1.63055944   0.19152993
C    5.29102802   1.55088937   1.53539944
C    5.19941807   0.64081979  -0.78982973
H    1.48958945  -1.46979940   1.01545966
H    1.15934956  -0.34256989  -0.31508988
H    0.82891965   0.12935996   1.38578951
H    2.60948896   1.41109955  -0.70021975
H    2.57155919   2.28710914   2.23632932
H    1.26058960   2.36230922   1.07337964
H    2.64406896   3.44102883   0.87714964
H    4.70603800   2.63961887  -0.21469992
H    5.17442799   0.56782979   2.00185919
H    4.92098808   2.30722928   2.23473930
H    6.36289740   1.73230934   1.40112948
H    5.12709808  -0.39008984  -0.42959985
H    6.26078796   0.87201971  -0.93358964
H    4.71275806   0.69515973  -1.76871943

