%chk=mol_1784.chk
# wB97XD/Def2SVP opt freq pop=full gfinput

C 5 H 14 N 2

1 2
C    2.22705913  -0.02692999  -1.76221931
N    3.37640882   0.83658963  -1.52598941
C    3.93641829   0.60284978  -0.18200994
C    5.19206810   1.48748934   0.09532996
C    5.55362797   1.41185951   1.58448946
C    6.38608742   1.00665963  -0.74756974
N    4.91317844   2.89757895  -0.25047991
H    1.81335926   0.18075992  -2.75403905
H    1.43532944   0.14402995  -1.02527964
H    2.51547909  -1.08291960  -1.73999929
H    3.06493878   1.80939937  -1.54899943
H    4.20854855  -0.45449981  -0.06990997
H    3.16462898   0.82632971   0.56644982
H    4.73385811   1.77796936   2.21337914
H    6.44148779   2.01268935   1.81340933
H    5.76628780   0.37944984   1.88439929
H    6.18052769   1.07342958  -1.82177937
H    6.62912750  -0.03761999  -0.52113980
H    7.28267717   1.60408938  -0.54543984
H    4.78315830   2.94572878  -1.26243949
H    5.74186802   3.45964885  -0.05935998

