%chk=mol_1239.chk
# wB97XD/Def2SVP opt pop=full gfinput

C 5 H 12 N 2

1 2
C    1.835434   0.051835  -0.274728
C    4.691000  -0.152085  -0.049019
C    5.932455   2.447498   0.037587
C    8.777400   2.181594   0.262351
C   10.268243   1.801948  -2.146842
N    9.756750   2.242481   2.520762
N   12.293028   1.986216   2.648546
H    0.983602  -1.832146  -0.313241
H    1.299073   1.035003  -2.013503
H    1.036779   1.084722   1.329403
H    5.429561  -1.242589  -1.649088
H    5.169157  -1.217910   1.663431
H    5.228740   3.526229   1.659784
H    5.493037   3.532900  -1.669308
H    9.000123   1.684086  -3.773556
H   11.354098   0.047470  -2.037276
H   11.548816   3.399372  -2.426956
H   12.803782   1.687714   4.490008
H   13.166024   3.642504   2.166817

