%chk=mol_5514.chk
# wB97XD/Def2SVP opt freq pop=full gfinput

C 4 H 6 N 2 O 1

1 2
N    1.17274952  -0.09937996   0.45683983
C    2.38258910  -0.00475000   0.04527998
C    3.15170884   1.26588953  -0.07306997
C    4.46177816   0.82163966  -0.70731974
C    4.36617804  -0.67844975  -0.74384969
O    5.24652815  -1.43904948  -1.11228955
N    3.13144898  -1.05729961  -0.32435989
H    0.86400968  -1.07455957   0.45248982
H    3.30809855   1.69517934   0.92137963
H    2.61563921   1.98963928  -0.69296974
H    4.55743837   1.20376945  -1.72812939
H    5.32354832   1.13544953  -0.11240996
H    2.85576892  -2.02603912  -0.30462989

