%chk=mol_7154.chk
# wB97XD/Def2SVP opt freq pop=full gfinput

C 6 H 13 N 1

1 2
C    1.84320939  -0.58763975   1.21298957
C    2.64976883  -0.19818993  -0.01613999
C    2.99340868   1.26322949  -0.00748000
C    4.24831820   1.73967934  -0.00791000
C    4.58802843   3.20556903  -0.02102999
C    5.40078783   3.61006856   1.21442950
N    5.75541782   5.02757835   1.17158961
H    1.59010935  -1.65196931   1.17684948
H    0.90815961  -0.02043999   1.27004945
H    2.40996909  -0.40503985   2.13195920
H    2.06620932  -0.41633984  -0.91805965
H    3.55490875  -0.81513965  -0.06392998
H    2.15464902   1.95746922  -0.01478999
H    5.08774805   1.04711962  -0.01462999
H    3.67646861   3.81374860  -0.07778998
H    5.16536808   3.41380882  -0.93043965
H    6.31917763   3.01452899   1.27669954
H    4.82140779   3.41731882   2.12456918
H    6.33392763   5.21115780   0.35285988
H    6.32858753   5.25445795   1.98315918

