%chk=mol_6763.chk
# wB97XD/Def2SVP opt pop=full gfinput

C 6 H 13 N 1

1 2
C    1.730422   0.056352  -0.049114
C    4.590919  -0.076383   0.051760
C    5.938502   1.800644   1.828631
N    7.760803  -0.207397   2.504756
C    5.913898  -2.164530   1.662354
C    4.480390  -3.262272   3.917194
C    7.184002  -4.230152   0.099513
H    0.968806  -1.566848  -1.077465
H    1.122516   1.771807  -1.030298
H    0.885337   0.078008   1.836719
H    5.353538   0.037114  -1.880996
H    4.811054   2.456247   3.437393
H    6.775198   3.450319   0.905009
H    9.365162  -0.147077   1.436078
H    3.647549  -1.792027   5.114166
H    5.732239  -4.399604   5.112937
H    2.941831  -4.488912   3.274215
H    8.310637  -3.446123  -1.450837
H    5.764364  -5.482927  -0.735859
H    8.442862  -5.386192   1.267345

