%chk=mol_4266.chk
# wB97XD/Def2SVP opt pop=full gfinput

C 4 H 6 N 2 O 1

1 2
C    1.828442  -0.244909  -0.020466
C    4.680323   0.086531   0.049076
C    5.436647   2.778615   0.015571
C    5.988410   4.384335   1.962518
O    6.576625   6.659130   0.941197
N    6.384421   6.446479  -1.680023
N    5.694180   4.086892  -2.199490
H    1.336641  -2.254424  -0.001852
H    1.017240   0.599742  -1.729364
H    0.929254   0.652258   1.615735
H    5.520495  -0.882616  -1.576334
H    5.433700  -0.831309   1.745635
H    6.051999   4.252337   3.995108

