%chk=mol_2804.chk
# wB97XD/Def2SVP opt pop=full gfinput

C 6 H 8 O 1

1 2
C    1.875534  -0.056352   0.019237
C    4.762110   0.000000   0.000000
C    5.780446  -1.440897  -2.285151
C    5.672996   2.572238   0.000000
C    6.423746   4.692322   0.000000
C    7.420879   7.227295  -0.001153
O    6.019118   9.060651  -0.001833
H    1.125956   0.922980   1.683274
H    1.176846  -2.004130   0.063136
H    1.086045   0.868802  -1.657913
H    5.432509  -0.958186   1.711676
H    5.161352  -0.579447  -4.064631
H    5.130323  -3.405854  -2.266311
H    7.851548  -1.459152  -2.287608
H    9.497688   7.374146  -0.001436

