%chk=mol_1305.chk
# wB97XD/Def2SVP opt pop=full gfinput

C 5 H 12 N 2

1 2
C    1.315930   1.083890  -1.907112
C    3.805701   1.230571  -0.582395
C    5.810398   2.499957  -1.486194
C    8.325339   2.694353  -0.167316
N   10.248628   1.453275  -1.743669
C    9.043265   5.498782   0.346236
N    9.911368   6.861520  -1.926255
H    0.807574  -0.894483  -2.230123
H    1.345391   2.046498  -3.738029
H   -0.154088   1.953032  -0.742284
H    3.944558   0.235762   1.210691
H    5.644291   3.511981  -3.270360
H    8.252226   1.710901   1.655589
H   10.243998   2.342335  -3.453664
H    9.663946  -0.350204  -2.090302
H   10.584129   5.549105   1.734712
H    7.438359   6.511864   1.173747
H   11.523966   5.989827  -2.523124
H   10.440756   8.638411  -1.406882

