%chk=mol_0825.chk
# wB97XD/Def2SVP opt pop=full gfinput

C 5 H 8 O 1

1 2
C    1.891880  -0.118561   0.056767
O    4.573251  -0.012567   0.054632
C    5.468886   2.529493   0.000000
C    8.197651   2.529493   0.000000
C   10.446728   2.529493   0.000000
C   13.175492   2.529493   0.000000
H    1.317139  -2.099618   0.099513
H    1.130302   0.753642  -1.657894
H    1.130340   0.826510   1.733030
H    4.752000   3.542330   1.658046
H    4.752000   3.470180  -1.700016
H   13.920196   4.458620  -0.022072
H   13.920138   1.545777  -1.659633
H   13.920138   1.584006   1.681705

