%chk=mol_4551.chk
# wB97XD/Def2SVP opt pop=full gfinput

C 5 H 9 N 1 O 1

1 2
C    1.874570   0.112401   0.052856
C    4.726734  -0.020768  -0.239863
C    5.974256   2.527471   0.135682
O    4.825699   4.504068   0.508790
C    8.770351   2.578966  -0.149440
C   10.359516   3.614857   1.975671
N   10.217465   0.901645   1.521626
H    1.031809  -1.750151  -0.254036
H    1.047022   1.429899  -1.309505
H    1.356219   0.753339   1.950141
H    5.197390  -0.698783  -2.139378
H    5.489541  -1.355708   1.145306
H    9.463900   2.818923  -2.060066
H    9.409721   4.310541   3.651877
H   12.121988   4.546738   1.513595
H   11.821352   0.276297   0.647193

