%chk=mol_3243.chk
# wB97XD/Def2SVP opt pop=full gfinput

C 5 H 8 O 2

1 2
C    1.678719  -0.748010   0.126593
C    4.427515   0.109434   0.039703
O    5.807450  -1.555471  -1.560101
C    4.928349   2.740821  -0.895390
C    3.208264   4.431162  -1.674316
C    4.006616   6.961486  -2.541152
O    2.457400   8.517072  -3.275179
H    0.552443   0.435223   1.395638
H    1.564278  -2.706296   0.790094
H    0.816381  -0.719551  -1.756330
H    5.232009  -0.065120   1.939445
H    5.035138  -1.485098  -3.226537
H    6.923579   3.251104  -0.898149
H    1.192965   4.073834  -1.724186
H    6.050714   7.361145  -2.492228

