%chk=mol_7036.chk
# wB97XD/Def2SVP opt pop=full gfinput

C 6 H 9 N 1

1 2
C    1.889726   0.000000   0.000000
C    4.618491   0.000000   0.000000
C    6.867567   0.000000   0.000000
C    9.572597   0.033354   0.108943
N   11.014288  -1.272636  -1.859131
C   11.014458   1.480959  -1.880542
C   13.365844   2.865770  -1.191075
H    1.145117   1.929165   0.021996
H    1.145023  -0.983678   1.659633
H    1.145174  -0.945449  -1.681762
H   10.393324  -0.078102   1.984609
H    9.809814  -1.979356  -3.189537
H    9.993855   2.385307  -3.408405
H   14.409577   1.935684   0.334274
H   12.898798   4.782368  -0.569601
H   14.617183   3.011241  -2.831225

