%chk=mol_0062.chk
# wB97XD/Def2SVP opt pop=full gfinput

C 4 H 10 O 1

1 2
C    1.746920  -0.077781   0.044012
C    4.613861  -0.029007   0.014551
C    5.640360   2.660432   0.000038
O    8.333163   2.539905  -0.030425
C    9.435062   4.988745  -0.026286
H    1.062177  -2.029774   0.057467
H    0.970941   0.862320  -1.628698
H    1.004994   0.873658   1.725490
H    5.317860  -1.049403  -1.645082
H    5.351478  -1.043545   1.662940
H    5.011913   3.677199   1.692968
H    4.975176   3.673722  -1.680987
H   11.490650   4.777587  -0.062663
H    8.907621   6.016264   1.688754
H    8.850494   6.049788  -1.701509

