%chk=mol_1827.chk
# wB97XD/Def2SVP opt pop=full gfinput

C 5 H 8 N 2

1 2
C    2.243766   0.054349   0.031162
N    4.987970  -0.343873   0.209023
C    5.513956  -3.022182  -0.326734
N    6.362368   1.319917  -1.201280
C    8.327588   2.141230  -0.023792
C    9.775477   3.883368  -1.515485
C   10.994823   5.343541  -2.757148
H    1.777665   2.004867   0.546698
H    1.227396  -1.176109   1.349775
H    1.542527  -0.288996  -1.886873
H    4.496244  -4.255096   0.988629
H    7.531541  -3.416795  -0.081164
H    4.991447  -3.529366  -2.265253
H    8.934153   1.641473   1.903956
H   12.058721   6.635565  -3.873636

