%chk=mol_1433.chk
# wB97XD/Def2SVP opt pop=full gfinput

C 5 H 12 N 2

1 2
C    2.252459  -1.008320   1.418353
C    5.093776  -1.271824   1.069094
C    6.261116   1.186446   0.075684
N    9.015619   0.920089  -0.338866
C    9.891148   3.144599  -1.770711
N   10.364940   0.439494   1.805690
C   12.263756  -1.043545   1.411569
H    1.448116  -2.780883   2.119649
H    1.322827  -0.546660  -0.371577
H    1.809318   0.481672   2.783680
H    5.472231  -2.819812  -0.257192
H    5.939636  -1.798093   2.885971
H    5.883852   2.735945   1.401326
H    5.328064   1.654701  -1.715607
H    8.886532   3.309591  -3.572168
H   11.902081   2.961277  -2.224926
H    9.632406   4.891537  -0.690355
H   13.500525  -1.569021   3.000677
H   12.739778  -1.842407  -0.455330

