%chk=mol_0547.chk
# wB97XD/Def2SVP opt pop=full gfinput

C 5 H 5 N 1

1 2
N    1.911741   0.007257  -0.014626
C    4.667624   0.000000   0.000000
C    5.574636  -1.478881  -2.173601
C    6.314331  -2.688551  -3.948092
C    5.578509   2.572238   0.000000
C    6.329260   4.692322   0.000000
H    1.296182   0.906898   1.567112
H    1.297278  -1.808903   0.104370
H    5.296165  -0.940630   1.736583
H    6.963206  -3.742792  -5.535877
H    6.992667   6.592971  -0.020447

