%chk=mol_2210.chk
# wB97XD/Def2SVP opt pop=full gfinput

C 5 H 8 O 2

1 2
C    3.030705  -0.229280  -0.176746
C    1.372281  -2.214816   1.109628
O   -0.839756  -2.841959  -0.306211
C   -2.694258  -1.045491  -0.341077
C   -2.522633   1.419128   0.226597
C   -0.158151   2.854299   0.808236
O    1.826194   2.092626  -0.829344
H    3.781626  -1.003520  -1.943073
H    4.647422   0.211517   1.038234
H    2.471478  -3.959052   1.310355
H    0.836827  -1.653586   3.033426
H   -4.457184  -1.899496  -0.943427
H   -4.238977   2.543893   0.134681
H    0.384144   2.722188   2.801594
H   -0.503820   4.856369   0.409296

