%chk=mol_1395.chk
# wB97XD/Def2SVP opt pop=full gfinput

C 6 H 11 N 1

1 2
C    1.844883  -0.202371  -0.072925
C    4.707119  -0.011867   0.182491
C    5.720938   2.707637   0.000000
N    4.834467   4.282327   2.086806
C    8.449702   2.707637   0.000000
C   10.698779   2.707637   0.000000
C   13.427544   2.707637   0.000000
H    1.271389  -2.189134  -0.115840
H    1.198086   0.687652  -1.821772
H    0.878364   0.691092   1.518414
H    5.565300  -1.162276  -1.319766
H    5.287340  -0.886093   1.975482
H    5.045626   3.552232  -1.767310
H    5.419829   3.504440   3.747251
H    2.914695   4.288355   2.132329
H   14.172172   4.636765  -0.022072
H   14.172133   1.723827  -1.659595
H   14.172020   1.762170   1.681781

