%chk=mol_3906.chk
# wB97XD/Def2SVP opt pop=full gfinput

C 5 H 9 N 1 O 1

1 2
C    1.691569   0.024245   0.374884
C    4.531487   0.138196  -0.026437
C    5.303951  -0.075117  -2.790596
C    5.960555   2.160051   1.550728
C    7.550344  -0.101063   2.463863
O    9.574468  -0.461320   3.446501
N    5.829767  -1.773621   1.530281
H    1.195479   0.055407   2.385080
H    0.889759  -1.701018  -0.442668
H    0.761824   1.640906  -0.523114
H    7.362524  -0.077498  -3.021067
H    4.560967   1.521796  -3.878266
H    4.574781  -1.816650  -3.639537
H    4.891292   3.078723   3.063095
H    7.023507   3.564798   0.475077
H    6.453925  -3.511187   1.038745

