%chk=mol_1468.chk
# wB97XD/Def2SVP opt pop=full gfinput

C 5 H 8 N 2

1 2
C    4.526575  -0.937077  -2.659090
C    4.667132   0.161118  -0.012472
N    5.600052   2.737098  -0.010318
C    4.184572   4.894901   0.046544
C    5.880790   6.863939   0.034601
C    8.267986   5.696712  -0.025303
N    8.105470   3.177348  -0.049605
H    3.805455  -2.874047  -2.595728
H    6.391999  -0.971452  -3.554367
H    3.269850   0.182321  -3.863677
H    5.926918  -0.963004   1.185765
H    2.793809   0.168280   0.868102
H    2.143951   4.849604   0.085397
H    5.456509   8.860718   0.065611
H   10.115780   6.571712  -0.051098

