%chk=mol_4296.chk
# wB97XD/Def2SVP opt pop=full gfinput

C 4 H 5 N 1 O 2

1 2
C    1.832845   0.272763  -0.565973
C    4.332651   0.296593  -0.178787
C    5.877955   2.596333  -0.206377
N    8.279721   2.721092   0.153729
O    8.896642   5.301759  -0.051514
C    6.576833   6.569652  -0.561513
O    4.618415   4.763112  -0.656000
H    0.791531  -1.493658  -0.522075
H    0.764848   1.985365  -0.932655
H    5.358469  -1.440822   0.184211
H    6.714575   7.552026  -2.375745
H    6.197281   7.939401   0.940195

