%chk=mol_5338.chk
# wB97XD/Def2SVP opt pop=full gfinput

C 5 H 13 N 1 O 1

1 2
C    2.132291  -0.366456   0.833539
O    4.762885   0.105995   1.080923
C    5.476162   2.650983   0.440911
C    4.525875   4.518826   2.429035
C    8.402724   2.754181   0.167165
C    9.798363   1.966562   2.577662
N    9.201057   1.088917  -1.921266
H    1.823283  -2.401974   1.016824
H    1.436551   0.237104  -1.017315
H    1.079204   0.577141   2.340029
H    4.644342   3.142785  -1.396281
H    4.950232   3.864792   4.345368
H    2.468814   4.715736   2.317314
H    5.347075   6.395816   2.151963
H    8.968885   4.686369  -0.321801
H    9.312211   0.040176   3.158847
H    9.355014   3.240975   4.145266
H   11.849906   2.042548   2.300685
H    8.375172  -0.635137  -1.618305
H   11.099741   0.790983  -1.830804

