%chk=mol_2056.chk
# wB97XD/Def2SVP opt pop=full gfinput

C 6 H 7 N 1

1 2
N    1.889802  -0.287125  -0.445125
C    4.620777  -0.050456   0.019937
C    5.626451   2.707637   0.000000
C    4.582548   4.170966   2.143384
C    3.734118   5.365632   3.877302
C    8.355216   2.707637   0.000000
C   10.604293   2.707637   0.000000
H    1.412778  -2.152530  -0.483090
H    1.460116   0.424754  -2.181802
H    5.601394  -1.157268  -1.434359
H    5.046835  -0.948491   1.840385
H    4.981261   3.605786  -1.756841
H    2.973805   6.417283   5.417108
H   12.618344   2.719316   0.011641

