%chk=mol_6578.chk
# wB97XD/Def2SVP opt pop=full gfinput

C 3 H 6 O 3 S 1

1 2
C    2.081250  -0.512418   0.070166
C    4.815891   0.307440  -0.156413
S    5.130115   3.646038   0.144299
O    3.983581   4.864779  -2.026335
O    4.493296   4.384505   2.707071
C    8.419826   4.181756  -0.148532
O    9.867035   2.453942  -0.700144
H    1.929788  -2.566910  -0.105333
H    0.921563   0.350242  -1.409320
H    1.286204   0.040780   1.897795
H    5.575713  -0.231851  -2.001428
H    5.952146  -0.563686   1.335734
H    9.060160   6.128514   0.199952

