%chk=mol_7158.chk
# wB97XD/Def2SVP opt pop=full gfinput

C 6 H 9 N 1

1 2
C    3.375656  -1.281348  -1.929599
C    5.433170  -0.501136  -0.081220
C    5.624543   2.324344   0.122870
C    7.704867   3.646623  -0.484790
C    7.925303   6.473635  -0.278319
C    8.537367   7.598400  -2.744222
N    9.037351   8.508454  -4.679661
H    3.257378  -3.343832  -2.037767
H    3.766243  -0.561872  -3.830607
H    1.525425  -0.566842  -1.337586
H    7.236102  -1.326852  -0.680471
H    5.006508  -1.275282   1.791668
H    3.951417   3.299670   0.818119
H    9.373079   2.650001  -1.165186
H    9.419151   6.923881   1.083191
H    6.172791   7.303697   0.449131

