%chk=mol_6663.chk
# wB97XD/Def2SVP opt pop=full gfinput

C 4 H 6 N 2 S 1

1 2
N    4.313678  -0.868877  -2.602739
C    4.463836  -0.015193   0.017064
C    5.365197   2.662775   0.041801
C    3.873447   4.807652   0.153030
S    5.725605   7.463813   0.107828
C    8.352854   5.579624  -0.077743
N    7.948982   3.128649  -0.097453
H    4.076725  -2.776140  -2.618310
H    6.035577  -0.542616  -3.412297
H    5.787135  -1.207081   1.073062
H    2.606291  -0.175952   0.915742
H    1.837154   4.928292   0.239428
H   10.234038   6.377221  -0.172078

