%chk=mol_5810.chk
# wB97XD/Def2SVP opt pop=full gfinput

C 4 H 8 N 2 O 1

1 2
N    4.338981  -1.389629  -2.336514
C    4.401191   0.261784  -0.386071
N    2.831377   0.320611   1.458018
C    6.478699   2.117533  -0.428250
C    6.590911   4.098003  -2.482023
C    5.961991   4.855689   0.170982
O    7.935300   6.167575   1.493980
H    5.323529  -0.909450  -3.908880
H    2.667103  -2.239930  -2.703386
H    1.548498  -1.108135   1.253947
H    8.268081   1.368011   0.238238
H    5.079471   4.190071  -3.858764
H    8.431467   4.620815  -3.210494
H    4.024058   5.403162   0.567050
H    7.737408   5.942395   3.309591

