%chk=mol_4396.chk
# wB97XD/Def2SVP opt pop=full gfinput

C 5 H 5 N 1 O 1

1 2
C    1.869752  -0.508695   0.273122
C    4.658081  -0.041026   0.263050
C    5.931888   2.150489   0.000000
C    4.626125   4.618113  -0.270420
O    5.744465   6.616309  -0.614274
C    8.588843   2.150489   0.000000
N   10.763937   2.150489   0.000000
H    1.431033  -2.056740  -1.027973
H    0.745232   1.115184  -0.317568
H    1.260901  -1.073346   2.166666
H    5.766121  -1.769351   0.486434
H    2.553398   4.592299  -0.132923

