%chk=mol_1811.chk
# wB97XD/Def2SVP opt pop=full gfinput

C 4 H 5 N 3

1 2
C    1.848190  -0.184626  -0.301109
N    4.564369  -0.017896   0.139915
C    5.479185   2.645692   0.151027
C    4.535021   4.124025   2.334927
N    3.738880   5.315478   3.999473
C    8.278059   2.731164   0.060566
N   10.470557   2.777425  -0.103840
H    1.291949  -2.175812  -0.370519
H    1.316780   0.681435  -2.103284
H    0.765604   0.697309   1.223976
H    5.480300  -0.977329  -1.261695
H    4.803778   3.558506  -1.586727

