%chk=mol_6296.chk
# wB97XD/Def2SVP opt pop=full gfinput

C 4 H 7 N 1 O 2

1 2
O    5.808225   0.546792   2.705672
C    5.618855   2.848157   2.785589
N    6.889299   4.516578   1.274488
C    8.471662   3.658377  -0.776734
C   10.291524   5.693234  -1.474534
C   10.709948   6.461597  -4.182701
O    9.149506   7.924113  -2.514980
H    4.365305   3.821631   4.138954
H    6.364408   6.357360   1.285127
H    7.225670   3.163723  -2.354391
H    9.486595   1.947042  -0.207889
H   11.801793   5.935970  -0.118958
H    9.779049   5.413310  -5.672996
H   12.528960   7.244284  -4.698048

