%chk=mol_4449.chk
# wB97XD/Def2SVP opt pop=full gfinput

C 6 H 11 N 1

1 2
C    1.170629   0.593109  -1.436116
C    0.118505   2.431227   0.461944
N    0.315943  -0.256115   1.042694
C    2.411139  -0.829571   2.759945
C    1.355727  -1.094529   5.475954
C    3.006328  -3.489908   5.712548
C    2.819774  -3.726105   2.808605
H   -0.015704   0.053082  -3.014945
H    3.179767   0.620227  -1.824984
H   -1.780708   3.136303   0.169565
H    1.398794   3.730697   1.388760
H    4.150821   0.288958   2.611337
H   -0.674311  -1.487574   5.631214
H    1.835812   0.441100   6.773818
H    4.924929  -3.119144   6.399161
H    2.187660  -5.044567   6.797175
H    4.529503  -4.402911   1.865613
H    1.214527  -4.884281   2.189663

