%chk=mol_0691.chk
# wB97XD/Def2SVP opt pop=full gfinput

C 5 H 8 O 1

1 2
C    1.724507   0.043161  -0.009751
C    4.514896  -0.487493   0.134870
C    5.413139  -2.854753   0.314337
C    6.239328   1.775190  -0.004365
C    6.085315   3.265088   2.425086
O    4.922566   5.262282   2.637510
H    1.108476   1.150031   1.625372
H    0.606791  -1.698618  -0.045316
H    1.283294   1.104526  -1.729836
H    4.154298  -4.476119   0.385977
H    7.426095  -3.249668   0.385315
H    5.711225   2.994517  -1.591206
H    8.217814   1.231875  -0.282722
H    7.059771   2.417999   4.063403

