%chk=mol_4600.chk
# wB97XD/Def2SVP opt pop=full gfinput

C 4 H 7 N 1 O 2

1 2
C    1.691588  -0.409806  -0.258590
C    4.362603  -1.317649  -0.036245
C    5.068529  -3.683379  -0.622910
O    6.014016   0.486510   1.023684
C    8.353402   0.724313   0.023244
N    9.982081   2.224472   1.040011
O   12.233860   2.130742  -0.353265
H    1.588183   1.185331  -1.573046
H    0.993939   0.216600   1.585499
H    0.419670  -1.889216  -0.949550
H    3.717772  -5.038860  -1.364269
H    6.983445  -4.355138  -0.333537
H    8.711335  -0.411374  -1.684974
H   13.308547   3.316961   0.564499

