%chk=mol_7113.chk
# wB97XD/Def2SVP opt pop=full gfinput

C 6 H 5 N 1

1 2
C    1.798925   0.182642  -0.011452
C    4.634119   0.004630  -0.003987
C    5.897042  -2.203402   0.004611
C    4.675749  -4.598025   0.004743
C    3.654371  -6.622337   0.001776
C    6.051319   2.302197  -0.004290
N    7.206168   4.164408  -0.004195
H    1.163750   2.153362   0.020957
H    0.997001  -0.746725   1.655003
H    1.012251  -0.689145  -1.715796
H    7.954160  -2.224718   0.010809
H    2.747208  -8.420526  -0.000113

