%chk=mol_0218.chk
# wB97XD/Def2SVP opt pop=full gfinput

C 6 H 12

1 2
C    2.228516  -1.268195  -0.114215
C    5.094361  -1.068546  -0.142051
C    5.962067   1.674071  -0.392704
C    8.847887   1.863440  -0.398052
C    9.707410   4.553484  -0.675615
C   11.091464   5.785472   1.047267
H    1.648332  -3.247343   0.056767
H    1.413307  -0.509395  -1.858735
H    1.427291  -0.225274   1.484059
H    5.836778  -2.188832  -1.717950
H    5.847304  -1.890406   1.603546
H    5.191342   2.792789   1.173803
H    5.202265   2.482836  -2.144839
H    9.621012   0.762656  -1.975671
H    9.603853   1.030128   1.343765
H    9.171577   5.528167  -2.405281
H   11.681683   4.892558   2.797494
H   11.665865   7.730019   0.735633

