%chk=mol_0664.chk
# wB97XD/Def2SVP opt pop=full gfinput

C 5 H 10 O 1

1 2
C    4.456976  -0.945298  -2.763668
C    4.652487   0.037795  -0.071545
C    6.109957   2.513714  -0.005197
C    4.754834   4.895940  -0.952989
O    5.339232   6.232128   1.363400
C    6.143575   3.898033   2.542815
H    3.438772  -2.744090  -2.799799
H    6.333644  -1.246596  -3.579670
H    3.447220   0.392987  -3.974378
H    5.622200  -1.373037   1.096192
H    2.750005   0.276977   0.714676
H    8.017258   2.315992  -0.797389
H    2.710151   4.746009  -1.225261
H    5.615794   5.800117  -2.599451
H    8.005995   4.081827   3.418193
H    4.767873   3.267488   3.952230

