%chk=mol_5081.chk
# wB97XD/Def2SVP opt pop=full gfinput

C 5 H 9 N 1 O 1

1 2
C    4.875966  -0.813527   2.190230
N    7.241431  -2.093854   1.590072
C    8.817802  -0.507259  -0.057051
C   11.371276  -1.628131  -0.631433
C   12.370960  -3.761575   0.317134
C   12.939976  -0.178617  -2.459403
O   12.203908   1.776853  -3.459862
H    3.738199  -2.018228   3.427680
H    3.769191  -0.428892   0.484715
H    5.215625   0.963685   3.193354
H    6.831039  -3.723403   0.647628
H    9.119138   1.332521   0.851586
H    7.809312  -0.181622  -1.839535
H   11.339283  -4.891934   1.685201
H   14.237121  -4.437455  -0.198610
H   14.822803  -0.969297  -2.878091

