%chk=mol_0820.chk
# wB97XD/Def2SVP opt pop=full gfinput

C 5 H 10 O 1

1 2
C    6.463317  -1.708407   1.251225
O    5.797378   0.617638   2.423460
C    5.904865   2.719996   0.727053
C    4.318969   4.833372   1.879692
C    8.606739   3.560943   0.456388
C    9.838330   3.752618  -1.747959
H    6.245167  -3.215898   2.645976
H    8.431731  -1.684634   0.623080
H    5.208746  -2.105533  -0.343061
H    5.074595   2.197374  -1.099915
H    5.002559   5.345582   3.766319
H    2.359247   4.208174   2.114471
H    4.328701   6.525319   0.690279
H    9.597012   4.016707   2.199377
H    8.934607   3.304413  -3.534071
H   11.797107   4.361809  -1.801098

