%chk=mol_0674.chk
# wB97XD/Def2SVP opt pop=full gfinput

C 5 H 8 O 1

1 2
C    1.733030  -0.003553  -0.705964
C    4.531128   0.032277  -0.196569
C    5.794448  -2.126509   0.254471
C    5.752326   2.535880  -0.276883
C    5.383150   4.308273   1.927917
O    7.798238   3.226046   1.376325
H    1.330235   0.834371  -2.554551
H    0.724219   1.081944   0.738524
H    0.961304  -1.924062  -0.704131
H    4.857995  -3.949112   0.289922
H    7.815907  -2.100242   0.611289
H    5.805333   3.364034  -2.153570
H    4.421203   3.638611   3.605238
H    5.126808   6.299100   1.534420

