%chk=mol_0605.chk
# wB97XD/Def2SVP opt pop=full gfinput

C 5 H 10 O 1

1 2
C    1.997327  -0.083734  -0.033410
C    4.813567  -0.053706  -0.100118
C    6.207750  -1.167170  -2.321207
C    6.184110   1.658726  -1.924440
C    8.520700   3.016400  -1.125578
O   10.031271   3.492441  -3.290353
H    1.301020   1.422113   1.200902
H    1.323621  -1.891427   0.711217
H    1.170761   0.187990  -1.910362
H    5.614905  -0.338885   1.764948
H    5.119589  -1.918185  -3.887280
H    7.930406  -2.207295  -1.935004
H    5.065883   2.793752  -3.214651
H    9.641628   1.928919   0.231832
H    8.036495   4.830254  -0.259894
H   10.324651   1.867219  -4.094829

