%chk=mol_1785.chk
# wB97XD/Def2SVP opt pop=full gfinput

C 5 H 10 N 2

1 2
C    2.000747  -0.062455  -0.127103
N    4.752416  -0.212632  -0.236027
C    5.887329   2.318108  -0.093523
C    8.797583   2.244654   0.058941
C   10.004910   1.019866  -2.264723
C    9.758943   4.845315   0.351961
N   10.505933   6.896555   0.568411
H    1.203019  -1.965599  -0.264599
H    1.240681   1.061573  -1.689037
H    1.366952   0.749824   1.666757
H    5.249206  -1.064105  -1.893392
H    5.167135   3.289125   1.593927
H    5.295561   3.440058  -1.736318
H    9.353445   1.151561   1.731953
H    9.415674   1.967621  -4.009545
H    9.495817  -0.979332  -2.414541
H   12.071457   1.124293  -2.166004

