%chk=mol_2269.chk
# wB97XD/Def2SVP opt pop=full gfinput

C 5 H 8 O 2

1 2
C    1.885077   0.072452  -0.241072
C    4.690943   0.031540   0.031426
C    6.287988  -1.364269  -1.866010
C    6.320019   1.494962  -1.812361
C    8.564825   2.973541  -0.991180
O    9.946026   1.945927   0.897488
O    9.094685   4.984795  -1.984023
H    1.104620   1.738756   0.703092
H    1.062140  -1.610273   0.635647
H    1.293612   0.119261  -2.223376
H    5.231329  -0.032314   2.005037
H    5.359339  -2.263060  -3.460769
H    7.923376  -2.407662  -1.211900
H    5.338212   2.416506  -3.366982
H    9.280709   0.340661   1.494792

