%chk=mol_5149.chk
# wB97XD/Def2SVP opt pop=full gfinput

C 4 H 9 N 1 O 2

1 2
C    2.016092  -0.629449  -0.725825
N    4.539557  -0.681057   0.362638
C    5.707143  -3.160151   0.590861
C    5.825081   1.587049   0.649178
O    4.872999   3.659927   0.151046
C    8.543301   1.497249   1.640925
O    9.623865   3.953439   1.837059
H    1.147990   1.237771  -0.562023
H    0.822900  -2.000955   0.258193
H    2.151283  -1.134629  -2.724966
H    4.391856  -4.441575   1.541355
H    7.460393  -3.106351   1.673012
H    6.112754  -3.870348  -1.308125
H    9.719655   0.395898   0.346557
H    8.561650   0.647345   3.526380
H    8.300905   5.121876   1.275527

