%chk=mol_3580.chk
# wB97XD/Def2SVP opt pop=full gfinput

C 5 H 6 O 2

1 2
O    1.713623  -0.285972   0.403664
C    4.019296  -0.194302   0.167486
C    5.344788   2.304597  -0.243378
C    8.197122   2.360117   0.053460
C    9.410647  -0.162573  -0.078783
C    8.047872  -2.273378  -0.057996
O    5.419848  -2.354221   0.114952
H    4.521661   3.659814   1.095569
H    4.837623   2.936880  -2.149696
H    8.697502   3.240578   1.859188
H    8.994869   3.573945  -1.422246
H   11.460887  -0.263655  -0.159833
H    8.816404  -4.168075  -0.117314

