%chk=mol_3690.chk
# wB97XD/Def2SVP opt pop=full gfinput

C 6 H 8 O 1

1 2
O    1.055563   2.301573   1.927634
C    2.912918   2.201323   0.551025
C    5.237622   3.617106   1.147309
C    7.251673   3.501889  -0.385599
C    9.654214   4.817460   0.033259
C   10.804112   6.264253  -2.132613
C    9.699341   7.663255   0.072641
H    2.942795   1.057661  -1.190244
H    5.213188   4.738658   2.859779
H    7.167902   2.330713  -2.075524
H   10.952153   3.840302   1.289114
H    9.803030   6.363521  -3.917837
H   12.844110   6.238137  -2.325951
H   10.991838   8.579054   1.373604
H    7.957467   8.698996  -0.228865

