%chk=mol_2571.chk
# wB97XD/Def2SVP opt pop=full gfinput

C 5 H 10 O 2

1 2
C    1.781936  -0.004970   0.315055
C    4.623291   0.014249  -0.136400
O    5.062217   0.108281  -2.830016
C    6.062242   2.021856   1.432204
C    7.867648  -0.047357   2.386460
O   10.400202  -0.018935   1.384262
C    6.075809  -2.070611   1.310185
H    1.326096  -0.062550   2.331733
H    0.908939  -1.654625  -0.577500
H    0.901834   1.691853  -0.483675
H    6.811707  -0.380742  -3.090477
H    4.957716   2.915526   2.939979
H    6.956309   3.518254   0.319137
H    7.972717  -0.117617   4.453858
H   10.260740   0.520638  -0.364849
H    6.987716  -3.492535   0.116634
H    4.978692  -3.058673   2.761948

