%chk=mol_5134.chk
# wB97XD/Def2SVP opt pop=full gfinput

C 5 H 7 N 1 O 1

1 2
C    5.147293  -1.760790  -1.970417
N    4.669173  -0.155317   0.219567
C    5.708031   2.410327  -0.136382
C    8.586953   2.447857   0.000680
O    9.859590   0.957222   1.238451
C    9.826122   4.445467  -1.405200
C   10.851450   6.089151  -2.585656
H    4.244041  -3.598360  -1.680363
H    7.168034  -2.092097  -2.262059
H    4.343838  -0.939704  -3.691108
H    5.545515  -0.942595   1.756160
H    5.006413   3.621925   1.389005
H    5.048951   3.213290  -1.927653
H   11.780685   7.538987  -3.633717

