%chk=mol_6690.chk
# wB97XD/Def2SVP opt pop=full gfinput

C 5 H 12 N 2

1 2
C    1.598916   0.163688  -0.710424
C    4.336014  -0.007842   0.054462
C    4.845617   0.059583   2.876447
C    4.588747   2.721130   3.987209
N    5.084138   2.703367   6.704181
C    6.052812  -1.614506  -1.584327
N    6.201231   1.133892  -1.656534
H    1.363173   0.129144  -2.768052
H    0.741755   1.912535  -0.015307
H    0.538818  -1.433622   0.069712
H    6.749762  -0.662425   3.277050
H    3.526645  -1.231856   3.822954
H    2.694031   3.479213   3.648608
H    5.933910   4.002005   3.073658
H    3.738578   1.654266   7.598853
H    4.904954   4.495488   7.389415
H    5.278893  -2.509500  -3.255242
H    7.638386  -2.594783  -0.737333
H    7.754926   1.756973  -0.691867

