%chk=mol_5331.chk
# wB97XD/Def2SVP opt pop=full gfinput

C 5 H 7 N 1 O 1

1 2
C    4.720460  -1.604226  -1.634443
O    4.441159   0.053460   0.463682
C    5.468886   2.529493   0.000000
C    4.472264   4.183306   2.093741
C    3.065287   6.264423   1.774321
C    8.197651   2.529493   0.000000
N   10.372745   2.529493   0.000000
H    3.783799  -3.388506  -1.175315
H    6.715614  -1.998083  -2.002335
H    3.826450  -0.808349  -3.321949
H    4.745934   3.214027  -1.819107
H    4.922755   3.581069   4.010698
H    2.528416   6.945839  -0.086757
H    2.400614   7.336238   3.395479

