%chk=mol_5261.chk
# wB97XD/Def2SVP opt pop=full gfinput

C 4 H 7 N 1 O 2

1 2
C    5.298263   1.500027   3.881479
N    6.969140   2.968760   2.884894
O    7.377623   2.215080   0.378569
C    9.370925   3.703145  -0.682701
C    8.523818   6.402487  -1.165810
C    6.461238   6.411595  -3.114684
O    6.621770   7.555144  -5.125750
H    4.708668   1.787492   5.857055
H    4.401569  -0.069731   2.843490
H    9.929358   2.792070  -2.455642
H   11.010697   3.660419   0.582489
H   10.107881   7.537305  -1.861210
H    7.770913   7.295798   0.540556
H    4.725790   5.367521  -2.616477

