%chk=mol_4299.chk
# wB97XD/Def2SVP opt pop=full gfinput

C 5 H 11 N 1 O 1

1 2
C    2.556403  -0.137289   2.190665
C    4.289735   0.337297  -0.053309
C    6.264858   2.261019   0.559548
O    6.821042   3.985773  -1.456714
C    5.608253   5.029412   0.734310
C    7.202937   6.770246   2.270052
N    6.412446   9.370509   1.797470
H    1.189205  -1.622160   1.744349
H    1.507151   1.574671   2.686359
H    3.636778  -0.721138   3.854342
H    3.150910   0.933241  -1.679759
H    5.221465  -1.436060  -0.587214
H    7.814509   1.523252   1.667060
H    3.639046   5.569118   0.620718
H    9.211036   6.561885   1.813514
H    6.961373   6.342450   4.278944
H    6.691199   9.763969  -0.070638
H    7.570980  10.564041   2.768940

