%chk=mol_3078.chk
# wB97XD/Def2SVP opt pop=full gfinput

C 6 H 8 O 1

1 2
C    2.681295  -1.051311  -0.352509
C    5.408679  -0.158699  -0.315358
C    5.639510   2.662567   0.190371
O    3.772045   4.031939   0.443859
C    8.286147   3.761557   0.234685
C    9.849857   2.670863   2.251495
C   11.138235   1.787511   3.899601
H    2.594216  -3.084638  -0.719419
H    1.599899  -0.081598  -1.826194
H    1.755480  -0.681397   1.460928
H    6.290766  -0.558320  -2.144178
H    6.433856  -1.188827   1.155492
H    8.134591   5.810133   0.496185
H    9.145046   3.444461  -1.621291
H   12.279611   1.012761   5.367295

