%chk=mol_3966.chk
# wB97XD/Def2SVP opt pop=full gfinput

C 4 H 5 N 1 O 2

1 2
C    1.880278   0.071243   0.005442
C    4.672027  -0.089271   0.007691
N    6.063129   2.025182   0.008806
O    8.561064   1.224354   0.011357
C    8.623387  -1.338361   0.012094
O   10.909635  -2.343846   0.014834
C    6.211889  -2.274720   0.009845
H    1.025176  -1.812323  -0.018878
H    1.211390   1.097477  -1.661674
H    1.207308   1.056546   1.695443
H   10.689198  -4.164730   0.015420
H    5.630628  -4.227941   0.009883

