%chk=mol_3399.chk
# wB97XD/Def2SVP opt pop=full gfinput

C 7 H 12

1 2
C    4.148572  -0.877211   2.657144
C    4.226259   0.335464   0.045561
C    5.548274   2.873140   0.053744
C    4.180301   5.013803   0.134360
C    8.294045   3.037754  -0.090423
C    9.926373   1.100614  -0.222534
C   12.729989   1.429559  -0.387356
H    3.172737  -2.698642   2.562809
H    3.124832   0.321480   3.999265
H    6.044062  -1.208291   3.407592
H    2.273473   0.557828  -0.621134
H    5.114015  -0.951420  -1.315325
H    2.131195   4.966937   0.226408
H    5.050709   6.871403   0.122454
H    9.069778   4.946377  -0.100779
H    9.271620  -0.842780  -0.219095
H   13.290670   3.419875  -0.369007
H   13.433930   0.577992  -2.135674
H   13.643596   0.487152   1.209311

