%chk=mol_0446.chk
# wB97XD/Def2SVP opt pop=full gfinput

C 4 H 8 N 2

1 2
C    1.870942   0.544411  -0.946791
C    4.331007   0.019370   0.344724
N    6.166120   1.632289   0.227806
N    8.212126   0.817174   1.505261
C   10.428983   1.804424   0.175612
C    9.469002   3.064815   2.517909
H    1.502994  -0.957279  -2.313818
H    1.914860   2.368809  -1.911949
H    0.364169   0.539895   0.464306
H    4.481202  -1.788928   1.380124
H   10.146356   2.729728  -1.628755
H   12.117415   0.659684   0.316189
H   10.500735   2.782149   4.260406
H    8.516750   4.869295   2.347153

