%chk=mol_4218.chk
# wB97XD/Def2SVP opt pop=full gfinput

C 5 H 7 N 1 O 1

1 2
C    1.887572   0.074134   0.185269
C    4.729531  -0.059640  -0.219473
O    5.254762  -2.159466  -1.889197
N    6.388616  -1.256384  -4.160326
C    6.676723   1.152431  -3.916212
C    5.789800   2.183106  -1.525538
C    5.995024   4.598989  -0.829741
H    1.364042   1.647312   1.422227
H    1.203056  -1.685881   1.034965
H    0.882200   0.285368  -1.614469
H    5.712623  -0.416193   1.566054
H    7.518049   2.392261  -5.354274
H    5.311548   5.233086   0.997530
H    6.858912   6.001865  -2.052262

