%chk=mol_6477.chk
# wB97XD/Def2SVP opt pop=full gfinput

C 4 H 6 N 2 S 1

1 2
C    1.845280  -0.173628   0.005990
C    4.640052   0.117711   0.013795
C    6.015527   2.349723   0.097567
N    5.187846   4.762677   0.178428
S    9.182822   1.666946   0.092200
C    8.487516  -1.485948  -0.024113
N    6.078342  -2.075675  -0.065177
H    0.869274   1.648748   0.030273
H    1.238961  -1.246766   1.667721
H    1.242797  -1.199296  -1.686883
H    6.437466   6.187965  -0.126139
H    3.371366   5.205213  -0.250332
H    9.958177  -2.906153  -0.062550

