%chk=mol_1134.chk
# wB97XD/Def2SVP opt pop=full gfinput

C 4 H 7 N 1 O 1

1 2
O    2.824498   2.867149   0.381573
C    4.940387   3.723441  -0.059130
C    6.597695   2.805733  -2.194841
N    9.196088   2.608200  -1.240057
C   10.014301   0.012604  -0.771292
C   10.914831   1.443940  -3.059675
H    5.662942   5.360492   1.012081
H    6.512922   4.230738  -3.693148
H    5.823323   1.029334  -2.929359
H    8.682346  -1.520228  -1.034568
H   11.330136  -0.244720   0.776791
H   12.833905   2.157992  -3.052758
H   10.188969   0.911509  -4.898416

