%chk=mol_5585.chk
# wB97XD/Def2SVP opt pop=full gfinput

C 4 H 10 N 2 O 1

1 2
N    1.779423  -0.167619   0.175102
C    4.552615  -0.088609  -0.214673
C    5.282994  -0.058827  -2.990851
O    3.868402   1.855125  -4.265055
C    5.730424   1.945511   1.522269
N    7.457747   0.015911   2.574827
C    5.866806  -2.023538   1.530432
H    1.263206   0.032371   2.026901
H    0.976516  -1.828896  -0.389586
H    4.843803  -1.869544  -3.893006
H    7.297499   0.323124  -3.265749
H    2.225852   1.880693  -3.414319
H    4.484282   2.766843   2.960596
H    6.695527   3.502570   0.558433
H    9.226437   0.088194   1.807806
H    6.932631  -3.516969   0.571831
H    4.671630  -2.919192   2.968268

