%chk=mol_4517.chk
# wB97XD/Def2SVP opt pop=full gfinput

C 6 H 11 N 1

1 2
C    1.556246  -2.254538   0.975420
C   -0.816607  -2.872497  -0.579485
C   -2.946877  -0.999684  -0.377756
C   -2.761721   1.440444   0.283478
C   -0.355212   2.893398   0.729699
C    1.902425   2.017472  -0.871957
N    3.202632  -0.278035  -0.036113
H    2.698907  -3.977798   1.121798
H    1.031734  -1.781407   2.924559
H   -1.542716  -4.687220   0.117295
H   -0.335596  -3.166765  -2.573183
H   -4.823488  -1.761470  -0.742738
H   -4.497095   2.535294   0.454952
H    0.105825   2.897800   2.749438
H   -0.735840   4.868256   0.220285
H    3.313994   3.534260  -0.881009
H    1.305234   1.786056  -2.845398
H    4.211935  -0.978273  -1.520379

