%chk=mol_5717.chk
# wB97XD/Def2SVP opt pop=full gfinput

C 4 H 6 N 2 O 1

1 2
N    2.090188   0.378078  -0.862074
C    4.776925  -0.048868  -0.197269
C    5.878201  -1.855050  -1.997837
C    6.770983  -3.340847  -3.464227
C    6.249192   2.482987  -0.232247
N    5.035686   4.454274  -1.394864
O    8.364268   2.768657   0.678355
H    1.308239   1.431316   0.550194
H    1.199239  -1.329479  -0.801943
H    4.864533  -0.791644   1.733295
H    7.572605  -4.649237  -4.768516
H    3.502022   4.041312  -2.470458
H    6.003736   6.072465  -1.684577

