%chk=mol_0134.chk
# wB97XD/Def2SVP opt pop=full gfinput

C 5 H 10

1 2
C    4.191375  -1.121836   2.678668
C    5.126128  -0.186138   0.127368
C    5.957456   2.523710   0.258590
C    8.324792   3.301824  -0.211196
C    9.151660   5.998936  -0.092634
H    3.572867  -3.090326   2.533972
H    2.588641   0.002835   3.348784
H    5.688454  -1.024364   4.104088
H    3.602007  -0.346538  -1.266230
H    6.669316  -1.406259  -0.522887
H    4.511646   3.901321   0.750354
H    9.772454   1.930299  -0.711765
H    7.603407   7.270400   0.421088
H    9.889126   6.590231  -1.931640
H   10.654919   6.212796   1.310922

