%chk=mol_1810.chk
# wB97XD/Def2SVP opt pop=full gfinput

C 4 H 7 N 3

1 2
C    1.902538   0.255623  -0.632038
N    4.519280   0.052345   0.198931
C    5.518170  -2.532214   0.434524
C    6.000070  -3.749991  -2.030038
N    6.348270  -4.741512  -3.958806
C    6.163115   2.045780   0.021978
N    5.677096   4.379743  -0.422448
H    0.962022   1.849588   0.292567
H    0.817420  -1.441956  -0.157017
H    1.814969   0.527252  -2.681446
H    4.179337  -3.683794   1.519623
H    7.266167  -2.514318   1.548649
H    8.155340   1.506225   0.332063
H    3.782835   4.652165  -0.648630

