%chk=mol_4531.chk
# wB97XD/Def2SVP opt pop=full gfinput

C 4 H 6 N 2 O 1

1 2
C    1.884189  -0.090216  -0.023508
C    4.762110   0.000000   0.000000
C    5.936234  -1.370108  -2.208995
N    4.662106  -2.008307  -4.200087
O    6.295396  -3.197946  -5.908588
C    5.672996   2.572238   0.000000
N    6.399047   4.622572   0.000000
H    1.101918   0.821048   1.664792
H    1.205192  -2.045931  -0.063022
H    1.096703   0.882219  -1.675015
H    5.434494  -0.968409   1.704438
H    7.985605  -1.772072  -2.072406
H    5.201962  -3.496579  -7.366398

