%chk=mol_3506.chk
# wB97XD/Def2SVP opt pop=full gfinput

C 5 H 8 O 2

1 2
O    1.488972   0.208701  -0.264524
C    4.094640   0.013304   0.474435
C    5.751911  -1.710089  -1.072023
C    4.914176  -2.713420  -3.577894
C    5.270390  -0.489231  -5.384245
O    5.148067   1.768500  -3.859501
C    5.991282   1.094378  -1.336206
H    1.277001   1.606551  -1.451045
H    4.510909   0.164198   2.474899
H    7.255414  -2.757451  -0.179543
H    6.017701  -4.354477  -4.189674
H    2.924578  -3.287273  -3.504932
H    7.136608  -0.547567  -6.273475
H    3.822897  -0.428136  -6.853791
H    7.651142   2.019002  -0.580354

