%chk=mol_6353.chk
# wB97XD/Def2SVP opt pop=full gfinput

C 4 H 7 N 1 O 2

1 2
O    1.348716   3.171509  -0.842516
N    3.839394   2.892037  -1.681516
C    5.294427   2.607803   0.260329
C    8.157002   2.274266  -0.067199
C    9.599204   4.288167  -1.564674
O   11.451835   4.552860   0.433258
C    9.872251   3.088436   2.116134
H    0.417932   3.389451  -2.419927
H    4.546530   2.610921   2.207540
H    8.603678   0.354891  -0.718965
H    8.604320   6.070953  -1.896472
H   10.456516   3.629106  -3.325786
H   10.925565   1.560593   3.025603
H    9.006019   4.291814   3.558468

