%chk=mol_0783.chk
# wB97XD/Def2SVP opt pop=full gfinput

C 5 H 10 O 1

1 2
C    1.688206  -0.328529   0.178655
C    4.554429  -0.090367   0.083715
O    5.519077  -1.756141  -1.805180
C    5.506719   2.623015  -0.359350
C    4.620947   3.820554  -2.791919
C    6.176060   4.555071  -4.650352
H    0.880027   0.908883   1.626185
H    1.151807  -2.280805   0.612989
H    0.820689   0.115387  -1.646613
H    5.318691  -0.748974   1.892410
H    5.048838  -1.061573  -3.442533
H    7.580976   2.600131  -0.321518
H    4.889137   3.827943   1.210313
H    2.603381   4.137045  -3.005742
H    8.209197   4.313300  -4.517353
H    5.440049   5.436761  -6.350708

