%chk=mol_1651.chk
# wB97XD/Def2SVP opt pop=full gfinput

C 6 H 11 N 1

1 2
C    1.980565   0.019237  -0.052818
N    4.722010  -0.019974   0.155808
C    5.697845   2.062768   1.706234
C    8.391933   1.240435   2.307620
C    8.079316  -1.557361   2.614795
C    9.640721  -3.073224   3.907424
C    5.659201  -2.347626   1.357428
H    1.324717  -1.550464  -1.230816
H    1.353101   1.765855  -0.966992
H    1.044055  -0.116993   1.790251
H    4.613785   2.286795   3.461846
H    5.669027   3.859596   0.680982
H    9.652608   1.640056   0.713617
H    9.111504   2.166495   4.010093
H    9.262077  -5.081360   4.091144
H   11.331440  -2.340275   4.804931
H    5.986444  -3.803055  -0.076250
H    4.347050  -3.062963   2.791560

