%chk=mol_6078.chk
# wB97XD/Def2SVP opt pop=full gfinput

C 4 H 3 N 1 O 2

1 2
O    2.218331  -0.195813   0.925248
C    4.395768  -0.120716   0.241469
N    6.010066  -2.070856  -0.323653
C    8.342347  -1.218212  -1.033586
C    8.541373   1.302891  -1.023154
C    6.042362   2.244881  -0.208607
O    5.431961   4.433486   0.047149
H    5.473592  -3.901661  -0.207662
H    9.811873  -2.550355  -1.535157
H   10.122696   2.487503  -1.487460

