%chk=mol_4826.chk
# wB97XD/Def2SVP opt pop=full gfinput

C 5 H 11 N 1 O 1

1 2
C    6.700194  -0.853287  -3.425148
C    5.565924  -0.553539  -0.799657
O    6.433440  -2.569782   0.767021
C    6.129251   2.011651   0.436300
C    8.908188   2.584087   0.646286
C    9.994648   3.535073   3.101967
N   10.503571   0.967634   2.222904
H    6.077114   0.659250  -4.689922
H    6.130630  -2.668501  -4.243172
H    8.768953  -0.870351  -3.366018
H    3.511376  -0.765585  -0.946885
H    8.012911  -1.993963   1.547875
H    5.267309   2.038429   2.322984
H    5.231386   3.522733  -0.661291
H    9.728084   3.244376  -1.110989
H    8.777570   3.689577   4.740359
H   11.556318   4.855935   3.039530
H   12.298111   0.849432   1.508663

