%chk=mol_2960.chk
# wB97XD/Def2SVP opt pop=full gfinput

C 6 H 10 O 1

1 2
C    2.229329  -0.709290   0.267906
C    5.065335  -0.369536  -0.051930
C    5.849232   2.384815   0.350223
C    8.691341   2.814709   0.009316
O    9.153172   5.469775   0.001077
C   10.185133   1.654588   2.045647
C   11.411243   0.719400   3.711743
H    1.704079  -2.683921  -0.052553
H    1.183800   0.460243  -1.080394
H    1.633290  -0.188859   2.179308
H    5.610880  -0.980314  -1.954808
H    6.041341  -1.604302   1.292988
H    5.258390   3.018894   2.236226
H    4.823469   3.591727  -0.990462
H    9.301458   2.085936  -1.829444
H    8.905826   6.057045   1.724300
H   12.504696  -0.106297   5.187222

