%chk=mol_3728.chk
# wB97XD/Def2SVP opt pop=full gfinput

C 6 H 6 O 1

1 2
O    1.935609  -0.117409  -0.752017
C    4.519526  -0.025152   0.034317
C    5.531965   2.707637   0.000000
C    4.488364   4.154903   2.157859
C    3.640085   5.335963   3.899847
C    8.260730   2.707637   0.000000
C   10.509807   2.707637   0.000000
H    1.376533  -1.856486  -0.549268
H    5.588695  -1.219799  -1.277927
H    4.658213  -0.863435   1.924762
H    4.856332   3.619468  -1.737074
H    2.882475   6.387841   5.441825
H   12.523933   2.722302   0.005764

