%chk=mol_1907.chk
# wB97XD/Def2SVP opt pop=full gfinput

C 6 H 9 N 1

1 2
N    1.854898  -0.057089   0.387696
C    4.568621  -0.016025  -0.082562
C    5.815613   2.002467   1.617851
C    7.822124  -0.001077   2.317106
C    5.883001  -2.047140   1.553506
C    5.118852   0.032088  -2.747907
C    5.576374   0.070562  -4.970471
H    1.359053  -0.245419   2.235905
H    0.946394  -1.463687  -0.561834
H    4.699371   2.625396   3.251482
H    6.560260   3.683303   0.669341
H    9.504000   0.046109   1.108910
H    8.416689  -0.022563   4.294837
H    6.682979  -3.670264   0.550987
H    4.791249  -2.760758   3.166198
H    5.974275   0.114385  -6.942929

