%chk=mol_1592.chk
# wB97XD/Def2SVP opt pop=full gfinput

C 5 H 8 N 2

1 2
C    2.766540   6.056591  -1.109231
C    5.063389   4.634289  -0.280719
N    7.299823   5.399250  -0.897242
N    9.131818   3.782740   0.080899
C   11.371919   4.534530  -0.543655
C   13.652723   3.143824   0.259667
C   15.947040   3.960752  -0.413585
H    1.702435   6.639042   0.561910
H    1.580227   4.805347  -2.245732
H    3.284646   7.719569  -2.217990
H    4.752019   2.918342   0.867535
H   11.679263   6.246679  -1.703267
H   13.371059   1.464897   1.397452
H   16.222448   5.643554  -1.553846
H   17.624512   2.938090   0.177086

