%chk=mol_2570.chk
# wB97XD/Def2SVP opt pop=full gfinput

C 5 H 8 O 2

1 2
C    1.812323  -0.032919   0.235838
C    4.677091   0.008126  -0.047281
O    5.263076   0.089384  -2.718031
C    5.999824   2.076091   1.588428
C    7.796349  -0.023055   2.496253
O    9.843943  -0.026664   3.520560
C    6.049788  -2.111353   1.474308
H    1.239660  -0.092767   2.222904
H    1.005977  -1.691362  -0.705227
H    0.965707   1.654606  -0.615616
H    7.096243   0.112571  -2.857096
H    4.865686   2.888068   3.113739
H    6.933027   3.581598   0.530767
H    7.018311  -3.535111   0.335861
H    4.936551  -3.032519   2.951677

