%chk=mol_4696.chk
# wB97XD/Def2SVP opt pop=full gfinput

C 5 H 11 N 1 O 1

1 2
C    2.004811  -1.198351   0.420653
C    4.865270  -0.921374   0.462775
N    5.559839   1.693969  -0.092521
C    8.309372   2.027431   0.015175
C    8.935343   4.769744  -0.588536
C    9.155628   5.465674  -3.340223
O    9.134842   6.372724   1.090334
H    1.474799  -3.165272   0.780211
H    1.226168  -0.654922  -1.418258
H    1.116771  -0.023319   1.874476
H    5.684674  -2.190759  -0.953839
H    5.574465  -1.487989   2.324892
H    4.753455   2.862841   1.220574
H    9.279028   0.811392  -1.350512
H    9.050522   1.596932   1.900422
H   10.545976   4.244193  -4.256835
H    9.789557   7.424999  -3.511886
H    7.317265   5.267083  -4.258460

