%chk=mol_1235.chk
# wB97XD/Def2SVP opt pop=full gfinput

C 5 H 12 N 2

1 2
C    5.609917  -1.826099  -1.921606
C    4.786469  -0.135304   0.256795
C    5.976070   2.507213   0.134756
C    4.888476   4.228319   2.183692
C    8.846507   2.408002   0.380648
N   10.300538   3.305301  -1.536725
N    9.975959   1.520870   2.357679
H    4.611990  -3.636513  -1.833412
H    7.639256  -2.222186  -1.846867
H    5.183443  -0.949134  -3.747006
H    5.251795  -1.071172   2.044495
H    2.722736   0.044087   0.195870
H    5.519550   3.352998  -1.703853
H    5.160880   3.431573   4.075232
H    2.858343   4.509983   1.899931
H    5.803292   6.084219   2.150263
H    9.591872   4.726923  -2.600679
H   12.127071   3.554405  -1.007526
H    8.684464   0.897412   3.661609

