%chk=mol_1683.chk
# wB97XD/Def2SVP opt pop=full gfinput

C 6 H 13 N 1

1 2
C    4.037400  -0.507883  -2.877184
N    4.432995   0.227051  -0.253412
C    5.742424   2.643576  -0.029971
C    4.195740   4.933035  -0.862943
C    5.549370   7.165917   0.364925
C    6.900770   6.101983   2.687644
C    6.298079   3.283059   2.732922
H    3.125664  -2.363707  -2.936351
H    5.827084  -0.649839  -3.905232
H    2.790237   0.815511  -3.860767
H    5.465693  -1.139599   0.630942
H    7.538628   2.583312  -1.069774
H    2.255312   4.818348  -0.143071
H    4.100800   5.134745  -2.918739
H    6.937978   7.975079  -0.943937
H    4.219985   8.669874   0.866080
H    8.942090   6.401579   2.510237
H    6.285135   7.030783   4.429272
H    7.859125   2.167497   3.509127
H    4.630755   2.951960   3.923204

