%chk=mol_1847.chk
# wB97XD/Def2SVP opt pop=full gfinput

C 5 H 10 N 2

1 2
C    2.506060  -0.306570   0.349921
N    4.843576   0.311370   0.671287
N    5.419432   2.569007  -0.395350
C    5.164886   4.809806   1.233708
C    6.378544   6.903188  -0.309216
C    8.344142   5.579360  -1.937650
C    8.006486   2.778068  -1.396186
H    1.801155  -2.101810   1.132305
H    1.129924   0.869368  -0.690185
H    6.185149   4.542618   3.018856
H    3.187307   5.234334   1.665264
H    4.971095   7.823013  -1.521683
H    7.222571   8.357030   0.896788
H    8.003122   5.997651  -3.936092
H   10.260551   6.204311  -1.475158
H    8.259105   1.636049  -3.103422
H    9.393205   2.152663   0.015118

