%chk=mol_0101.chk
# wB97XD/Def2SVP opt pop=full gfinput

C 3 H 9 N 1 O 1

1 2
C    2.520101  -0.558357  -0.122643
O    5.129189  -0.047942   0.262105
C    5.695805   2.567098  -0.158265
C    8.543262   2.978284   0.174478
N    9.985445   1.614431  -1.760771
H    2.187925  -2.562828   0.250105
H    1.985252  -0.153125  -2.078321
H    1.363664   0.556732   1.179038
H    4.667699   3.713066   1.226621
H    5.100749   3.121128  -2.064356
H    9.126583   2.283847   2.035481
H    8.989049   4.993582   0.056200
H    9.330107  -0.205546  -1.785224
H   11.828986   1.510137  -1.217513

