%chk=mol_3581.chk
# wB97XD/Def2SVP opt pop=full gfinput

C 5 H 10 O 2

1 2
O    1.983759  -0.014626   0.345442
C    4.679038   0.008428   0.106977
C    5.502448  -2.561675  -0.908939
C    4.797353  -2.845890  -3.694320
C    5.721902  -0.586288  -5.216362
O    4.753171   1.723298  -4.205415
C    5.567587   2.133784  -1.655362
H    1.370354   1.698391   0.090934
H    5.447249   0.307175   2.003015
H    4.617130  -4.090577   0.173118
H    7.555673  -2.755731  -0.707381
H    5.593589  -4.598138  -4.458336
H    2.735775  -2.976734  -3.856742
H    7.792871  -0.502006  -5.253930
H    5.070117  -0.737881  -7.172455
H    7.630034   2.312042  -1.626544
H    4.761165   3.943764  -1.059418

