%chk=mol_6635.chk
# wB97XD/Def2SVP opt pop=full gfinput

C 6 H 13 N 1

1 2
C    1.834546   0.016327   0.063022
C    4.702073   0.062248   0.059394
C    5.824646   2.134975   1.702379
C    8.500838   1.183876   2.094610
N    8.149406  -1.529525   2.522936
C   10.401299  -2.986448   1.908075
C    5.909041  -2.349761   1.095285
H    1.128960  -1.536310  -1.110384
H    1.076293   1.787133  -0.695400
H    1.079336  -0.233457   1.975085
H    5.358999   0.343855  -1.888970
H    4.827060   2.285586   3.514380
H    5.777932   3.983769   0.775374
H    9.628778   1.556511   0.393876
H    9.412537   2.098711   3.708342
H   10.107011  -4.988972   2.341956
H   12.008718  -2.351027   3.045426
H   10.914302  -2.823364  -0.091123
H    6.353959  -3.644545  -0.462076
H    4.637029  -3.344305   2.391486

