%chk=mol_0188.chk
# wB97XD/Def2SVP opt pop=full gfinput

C 4 H 7 N 1

1 2
N    1.813211  -0.071621   0.005310
C    4.578391  -0.015666   0.011187
C    5.592796   2.695864   0.023773
C    8.374681   2.728198  -0.025096
C   10.642258   2.764556  -0.064175
H    1.220442  -1.904882  -0.028365
H    1.154604   0.731305  -1.617757
H    5.277892  -1.036042  -1.651110
H    5.261716  -1.032206   1.681932
H    4.918655   3.692355   1.711071
H    4.868218   3.727617  -1.621177
H   12.656516   2.802218  -0.095034

