%chk=mol_5200.chk
# wB97XD/Def2SVP opt pop=full gfinput

C 5 H 7 N 1 O 1

1 2
C    5.748641  -2.429583  -0.002929
N    4.591146   0.033675   0.000680
C    5.844526   2.294619  -0.000019
O    4.701752   4.308405  -0.000907
C    8.576995   2.285435   0.000000
C   10.826071   2.285435   0.000000
C   13.554835   2.285435   0.000000
H    4.258914  -3.858651   0.005291
H    6.929002  -2.637717   1.679834
H    6.912316  -2.639645  -1.697050
H    2.685622   0.192166  -0.002759
H   14.299614   4.214505  -0.022185
H   14.299294   1.301473  -1.659576
H   14.299294   1.339910   1.681762

