%chk=mol_6161.chk
# wB97XD/Def2SVP opt pop=full gfinput

C 4 H 9 N 1 O 2

1 2
O    3.582373  -0.086984  -2.477261
C    4.151747   0.354891   0.120489
C    6.455021   2.098050   0.306910
N    6.147279   4.539859  -1.067128
C    5.292027   5.744541   1.303439
C    6.716484   3.654409   2.782074
O    9.267047   4.263279   3.563400
H    2.259432  -1.360943  -2.530702
H    4.551802  -1.457130   1.034625
H    2.474993   1.181702   1.005693
H    8.180926   1.092980  -0.250219
H    4.835658   4.433316  -2.482817
H    5.988807   7.670398   1.578110
H    3.238292   5.734865   1.571912
H    5.664832   2.901656   4.397676
H   10.033633   4.934434   2.025106

