%chk=mol_5243.chk
# wB97XD/Def2SVP opt pop=full gfinput

C 4 H 10 N 2 O 1

1 2
C    6.703256  -3.409425  -1.105754
N    8.306650  -1.238205  -0.542994
N    7.129937   1.033075  -0.599931
C    8.668628   2.925372  -0.372578
C    7.689541   5.607989  -0.369763
O    8.220876   6.863391   1.946418
C    6.662267   5.995402   3.959789
H    7.828682  -5.143060  -1.055166
H    5.880601  -3.239727  -2.996236
H    5.174694  -3.581409   0.277393
H    9.170218  -1.540354   1.161029
H   10.733134   2.687304  -0.165313
H    5.664038   5.663566  -0.792324
H    8.690397   6.624624  -1.867068
H    7.031010   7.176575   5.613923
H    7.122189   4.039497   4.443880
H    4.661160   6.160280   3.467648

