%chk=mol_2002.chk
# wB97XD/Def2SVP opt pop=full gfinput

C 4 H 5 N 3

1 2
N    1.889726   0.000000   0.000000
C    4.064820   0.000000   0.000000
C    6.793584   0.000000   0.000000
C    7.930293  -2.352747   1.205173
N    8.587048  -1.452406   3.728675
N    8.863628   1.087821   3.812145
C    7.791152   1.942336   1.788380
H    7.561739   0.343099  -1.888139
H    9.658145  -2.899104   0.202446
H    6.656995  -3.980368   1.270387
H   10.041475  -2.410875   4.561346
H    7.635250   3.968897   1.354159

