%chk=mol_2385.chk
# wB97XD/Def2SVP opt pop=full gfinput

C 5 H 6 O 2

1 2
C    1.987198  -0.048736   0.177067
C    4.501725   0.105749   0.009260
C    6.122467   2.384872   0.051042
C    8.326719   1.451102  -1.496947
O    8.488027  -1.209765  -1.052483
C    6.166951  -2.107971  -0.387488
O    5.589753  -4.318931  -0.138895
H    1.033340  -1.867371   0.073284
H    0.824563   1.621725   0.419066
H    6.712251   2.781941   1.997686
H    5.251039   4.075553  -0.753396
H    8.049005   1.764607  -3.525152
H   10.096864   2.355941  -0.928422

