%chk=mol_4280.chk
# wB97XD/Def2SVP opt pop=full gfinput

C 5 H 3 N 1 O 1

1 2
C    1.905373  -0.064005   0.003590
C    4.172591   0.041291  -0.001814
C    6.845646   0.170850  -0.008296
N    8.262091   2.213701  -0.015231
C   10.676253   1.264794  -0.019351
C   10.608336  -1.329177  -0.014608
O    8.137368  -2.060652  -0.007446
H   -0.104936  -0.149893   0.008334
H   12.313021   2.487069  -0.025398
H   12.003049  -2.818659  -0.015307

