%chk=mol_4430.chk
# wB97XD/Def2SVP opt pop=full gfinput

C 5 H 11 N 1 O 1

1 2
C    1.080394  -1.534514   0.165049
C    3.934070  -1.186427  -0.146170
C    4.939479  -2.939979  -2.205651
C    4.601256   1.566772  -0.748048
O    3.845366   3.142331   1.311602
N    4.452724   5.653532   0.715450
C    3.760385   7.077157   2.567514
H    0.349184  -0.372843   1.713282
H    0.626217  -3.507351   0.597116
H    0.068314  -1.009964  -1.562917
H    4.821296  -1.700621   1.656326
H    4.094451  -2.503018  -4.044297
H    4.516615  -4.916595  -1.760544
H    6.993404  -2.760153  -2.385798
H    3.641824   2.190778  -2.476713
H    6.647055   1.760979  -1.017655
H    4.072549   9.130778   2.470401
H    2.848611   6.336819   4.289943

