%chk=mol_0088.chk
# wB97XD/Def2SVP opt pop=full gfinput

C 3 H 7 N 1 O 1

1 2
C    1.894677   0.015231  -0.009033
C    4.740321   0.059167  -0.003836
C    6.097995  -2.447876  -0.011622
N    5.875688   2.237303   0.001436
O    8.503957   1.949441   0.000945
H    1.131549   1.935476   0.007030
H    1.223994  -0.992654   1.665378
H    1.230438  -0.962211  -1.703928
H    4.737884  -4.003196   0.006217
H    7.295949  -2.596937   1.665453
H    7.260385  -2.603268  -1.712942
H    9.090414   3.696833   0.005442

