%chk=mol_3190.chk
# wB97XD/Def2SVP opt pop=full gfinput

C 6 H 8 O 1

1 2
C    1.629530  -0.402134  -0.197835
C    4.460359  -0.051287   0.178409
O    5.776382  -1.452765  -1.699657
C    5.217912   2.668444  -0.041442
C    6.394266   3.954139   1.798887
C    7.056180   6.536770   1.494490
C    7.619281   8.719953   1.244744
H    0.542729   0.623440   1.232820
H    1.134705  -2.409382  -0.086852
H    1.032225   0.248480  -2.071631
H    5.001142  -0.832330   2.018190
H    5.434267  -0.674387  -3.326768
H    4.763395   3.624344  -1.803007
H    6.880266   3.046994   3.574776
H    8.121627  10.656336   1.022266

