%chk=mol_3309.chk
# wB97XD/Def2SVP opt pop=full gfinput

C 7 H 12

1 2
C    4.764113  -1.468298  -2.745130
C    5.264324  -0.572946  -0.062474
C    6.214345   2.103927  -0.014154
C    8.639809   2.887615   0.041990
C   10.870291   1.115789  -0.034166
C    9.144309   5.600430   0.143374
C   11.421051   6.707375   0.216355
H    4.018559  -3.398011  -2.727158
H    6.502151  -1.467089  -3.870348
H    3.380455  -0.257305  -3.696153
H    6.570861  -1.864876   0.886036
H    3.504100  -0.659382   1.027028
H    4.707988   3.509618  -0.000869
H   10.330792  -0.866080  -0.250597
H   11.976083   1.263679   1.708520
H   12.097460   1.560290  -1.642248
H    7.500644   6.840053   0.169036
H   13.178194   5.655780   0.205583
H   11.568979   8.752683   0.292662

