%chk=mol_4247.chk
# wB97XD/Def2SVP opt pop=full gfinput

C 4 H 6 N 2 O 1

1 2
C    1.823302  -0.278319  -0.021864
C    4.670212   0.098587   0.043199
C    5.349758   2.803031   0.011093
C    5.902617   4.584438   1.798056
N    6.395154   6.814995   0.607736
N    6.168482   6.483688  -1.872832
O    5.510328   3.960016  -2.279577
H    1.366310  -2.295243   0.005518
H    0.997756   0.544506  -1.732236
H    0.912946   0.609021   1.611596
H    5.531039  -0.860865  -1.578564
H    5.441164  -0.793817   1.746353
H    5.972971   4.399868   3.826298

