%chk=mol_6615.chk
# wB97XD/Def2SVP opt pop=full gfinput

C 4 H 5 N 1 O 1 S 1

1 2
C    5.880167  -2.213984   1.000175
O    4.449776  -0.008390   0.478592
C    5.837345   2.125583   0.220890
N    4.459792   4.166978  -0.265053
S    6.374764   6.629670  -0.534641
C    9.107195   4.985721   0.000227
C    8.505601   2.478773   0.393970
H    4.564218  -3.800428   1.166906
H    6.891604  -2.044438   2.798363
H    7.188859  -2.642442  -0.545432
H   10.934749   5.895813  -0.000340
H    9.895098   1.032849   0.774674

