%chk=mol_5028.chk
# wB97XD/Def2SVP opt pop=full gfinput

C 4 H 8 N 2 O 1

1 2
C    2.080702   0.049190   0.311691
N    4.660273   0.170831  -0.633077
C    5.922345   2.213531  -0.246477
C    5.022476   4.561005   1.017466
C    6.659319   6.413692  -0.417743
O    8.968168   5.132628  -1.056640
N    8.367330   2.552018  -1.009624
H    1.413477  -1.905335   0.193225
H    0.814226   1.211447  -0.839227
H    1.947268   0.619036   2.296263
H    5.526693   4.473095   3.021445
H    3.012507   4.955391   0.792627
H    5.755785   7.016270  -2.181481
H    7.094429   8.092299   0.706682
H    8.919828   1.520001  -2.531836

