%chk=mol_6649.chk
# wB97XD/Def2SVP opt pop=full gfinput

C 5 H 3 N 1 S 1

1 2
N    1.570174   0.488683  -0.018765
C    3.755075   0.294552  -0.009354
C    6.447160   0.097491   0.002249
C    8.098176   2.117514   0.008050
C   10.676764   1.329044   0.019578
C   10.900734  -1.263981   0.022129
S    8.017560  -2.728387   0.010677
H    7.494522   4.075875   0.004271
H   12.283390   2.599073   0.025681
H   12.617494  -2.374346   0.030160

