%chk=mol_0105.chk
# wB97XD/Def2SVP opt pop=full gfinput

C 3 H 7 N 1 O 1

1 2
N    1.872889   0.015855   0.144942
C    4.629224   0.056106  -0.134322
C    5.820564   1.926727   1.735317
O    7.439493  -0.046657   2.752537
C    5.858756  -1.954412   1.555755
H    1.028559  -1.481508  -0.725390
H    1.000686   1.588050  -0.547643
H    5.341424   0.153710  -2.070063
H    4.602768   2.713193   3.213366
H    6.925431   3.442816   0.866439
H    6.994349  -3.360311   0.554143
H    4.659800  -2.896289   2.955418

