%chk=mol_4706.chk
# wB97XD/Def2SVP opt pop=full gfinput

C 4 H 10 N 2 O 1

1 2
C    4.934528  -0.649782   2.839748
C    4.997608   0.205999   0.095412
N    5.883020   2.806470  -0.191316
C    4.040499   4.790569   0.314734
C    8.454408   3.190141  -0.332044
N    9.225605   5.619516  -0.576329
O   10.047996   1.508757  -0.251145
H    4.318213  -2.620275   2.960029
H    3.622813   0.498302   3.952835
H    6.802919  -0.501552   3.714975
H    3.113872   0.055860  -0.751015
H    6.242824  -1.056451  -0.975571
H    2.352085   4.446601  -0.827587
H    4.751754   6.676629  -0.120281
H    3.539570   4.738356   2.319658
H    8.232780   6.694865  -1.796430
H   11.119980   5.744522  -0.815587

