%chk=mol_5310.chk
# wB97XD/Def2SVP opt pop=full gfinput

C 5 H 11 N 1 O 1

1 2
C    2.736172  -0.726354  -0.161628
O    5.389310  -0.345820  -0.297065
C    6.039659   2.227987   0.192317
C    8.886721   2.488335   0.101233
C   10.283927   1.220839   2.230727
C   10.134752   2.593045  -2.469249
N    9.933175   4.863134  -0.915157
H    2.336987  -2.703367  -0.611799
H    1.755064   0.472847  -1.532284
H    2.047953  -0.333839   1.749036
H    5.347339   2.783056   2.065244
H    5.135482   3.440435  -1.224845
H   12.322299   1.568888   2.143838
H    9.993647  -0.826283   2.165570
H    9.601680   1.915842   4.055485
H    8.946342   2.526469  -4.134570
H   12.003654   1.793804  -2.704954
H   11.630301   5.281350  -0.096433

