%chk=mol_6604.chk
# wB97XD/Def2SVP opt pop=full gfinput

C 3 H 9 N 1 O 2 S 1

1 2
C    1.771769  -0.063438  -0.087589
N    4.529220   0.216846  -0.320403
C    5.669348  -1.445565  -2.236793
S    5.743029   3.161039  -0.011735
C    4.719383   4.673520  -2.842413
O    4.483791   4.385053   2.084651
O    8.469280   2.971935  -0.111702
H    1.044641   0.997227   1.529582
H    1.294765  -2.050806   0.236405
H    0.819177   0.567088  -1.809847
H    5.125372  -3.408707  -1.873493
H    7.732627  -1.372848  -2.159881
H    5.031793  -0.928800  -4.133417
H    5.506492   3.682623  -4.470147
H    5.426689   6.613323  -2.807585
H    2.658523   4.692757  -2.900730

