%chk=mol_4323.chk
# wB97XD/Def2SVP opt pop=full gfinput

C 5 H 11 N 1 O 1

1 2
C    1.841462  -0.111286  -0.079539
C    4.734028  -0.058676   0.095828
C    5.595725  -1.456941   2.482571
C    5.886251  -1.320011  -2.245297
C    5.554151   2.697150   0.096376
N    6.763028   3.711309   1.966090
O    7.234797   6.251176   1.403084
H    1.170874   0.868594  -1.776607
H    0.980163   0.830554   1.550709
H    1.127713  -2.054662  -0.145471
H    4.804950  -0.591484   4.190298
H    7.658191  -1.425326   2.669257
H    4.996549  -3.438130   2.446402
H    5.292820  -0.366248  -3.985092
H    5.318540  -3.305679  -2.385269
H    7.955123  -1.249185  -2.184694
H    5.055962   3.823162  -1.593266
H    8.131189   6.828110   2.907570

