%chk=mol_3750.chk
# wB97XD/Def2SVP opt pop=full gfinput

C 5 H 6 O 2

1 2
O    2.018983  -0.032919  -0.821861
C    4.573137   0.000000   0.000000
C    5.484023   2.572238   0.000000
C    6.234774   4.692322   0.000000
C    7.145659   7.264561   0.000000
C    5.008285   9.114546  -0.330664
O    4.875985  11.131224   0.810258
H    1.457527  -1.777306  -0.721875
H    5.684693  -1.185104  -1.278759
H    4.661217  -0.819121   1.896699
H    8.468921   7.563421  -1.561991
H    8.127957   7.700880   1.767536
H    3.631317   8.659783  -1.832241

