%chk=mol_0598.chk
# wB97XD/Def2SVP opt pop=full gfinput

C 5 H 8 O 1

1 2
C    1.851894  -0.036566   1.798698
C    0.544279  -1.950764  -0.052119
C    1.505413  -0.058449  -2.125280
C    0.469691   1.816065  -0.066726
O   -2.220296   1.346203   0.171209
C   -2.291047  -1.368634   0.193735
H    3.921635   0.001663   1.797640
H    1.169306  -0.039722   3.749368
H    1.194912  -3.901170  -0.098436
H    0.490686  -0.083450  -3.925509
H    3.543029  -0.022752  -2.488240
H    1.009170   3.800863  -0.125648
H   -3.386616  -2.059046  -1.416425
H   -3.089570  -2.039884   1.976937

