%chk=mol_0438.chk
# wB97XD/Def2SVP opt pop=full gfinput

C 6 H 10

1 2
C    1.781426   0.000454   1.806332
C    0.529161  -1.913707  -0.057712
C    1.455127  -0.028762  -2.129268
C    0.565387   1.906790  -0.088099
C   -2.278141   1.472191   0.149629
C   -2.305352  -1.421887   0.172570
H    3.851016  -0.018822   1.871471
H    1.057736   0.022601   3.742773
H    1.220215  -3.851772  -0.100496
H    0.422637  -0.033297  -3.920785
H    3.486110  -0.050966  -2.534217
H    1.292705   3.830664  -0.162554
H   -3.046257   2.266575   1.897455
H   -3.323802   2.242538  -1.458944
H   -3.365130  -2.197695  -1.423984
H   -3.088625  -2.173733   1.932453

