%chk=mol_3336.chk
# wB97XD/Def2SVP opt pop=full gfinput

C 5 H 10 O 2

1 2
C    3.748196  -0.944655  -2.768619
O    4.102595   0.013379  -0.286218
C    5.740478   2.194501  -0.083167
C    4.647214   4.776547  -0.832840
O    5.520835   5.910988   1.502767
C    5.952392   3.409425   2.560182
C    8.503314   3.263047   3.849769
H    2.486861  -2.576755  -2.670089
H    5.559366  -1.543094  -3.563929
H    2.887388   0.496355  -3.974378
H    7.585266   1.816896  -0.951288
H    2.587772   4.875172  -0.991634
H    5.521931   5.651113  -2.487598
H    4.406823   2.897593   3.845083
H   10.024147   3.908294   2.604836
H    8.919110   1.318235   4.416914
H    8.527257   4.440101   5.550182

