%chk=mol_2268.chk
# wB97XD/Def2SVP opt pop=full gfinput

C 6 H 10 O 1

1 2
C    1.739833  -0.790283   0.004006
C    4.500156  -0.868102  -0.553198
C    5.443866  -0.456123  -3.207961
C    5.884872   1.538672  -1.216171
C    8.478029   1.993680  -0.169017
C    9.791767   4.283631  -1.252737
O    8.858413   5.764874  -2.771832
H    1.429578  -0.222988   1.967281
H    0.906369  -2.662114  -0.267037
H    0.737258   0.544392  -1.217229
H    5.464634  -2.266084   0.594149
H    4.084927  -0.036793  -4.685293
H    7.028440  -1.587276  -3.848144
H    4.780799   3.264993  -1.325681
H    9.709318   0.362998  -0.499247
H    8.346939   2.280087   1.877934
H   11.728812   4.595550  -0.540443

