%chk=mol_3851.chk
# wB97XD/Def2SVP opt pop=full gfinput

C 5 H 7 N 1 O 1

1 2
C    3.676425  -0.414852   0.382424
N    1.988823  -2.512674   1.114466
C    0.173666  -1.799737  -0.866043
C   -2.254198  -0.987420   0.185703
C   -2.187377   1.517545   0.511813
O    0.017064   2.792032  -0.136816
C    1.548404   0.756533  -1.213091
H    5.310244  -1.023400  -0.734196
H    4.345180   0.734820   1.965258
H    2.751347  -4.262504   0.926854
H    0.104445  -3.036393  -2.520422
H   -3.821177  -2.209071   0.624668
H   -3.646964   2.721489   1.268479
H    2.092872   1.211806  -3.159301

