%chk=mol_4452.chk
# wB97XD/Def2SVP opt pop=full gfinput

C 4 H 9 N 1 O 2

1 2
C    3.963266  -0.670399   2.706352
C    4.312072   0.273670   0.021505
C    5.630156   2.810968   0.024510
C    4.012550   5.162070   0.414152
O    4.210536   6.796041  -1.700470
N    8.075159   2.855282  -0.249217
O    9.028714   5.321299  -0.173042
H    3.023222  -2.513411   2.708507
H    2.814634   0.643943   3.819288
H    5.787343  -0.873035   3.664141
H    2.482476   0.457030  -0.924567
H    5.445491  -1.079808  -1.058927
H    4.635385   6.161433   2.115435
H    2.028149   4.640941   0.651105
H    6.028132   7.039438  -1.927974
H   10.849315   5.039049  -0.306287

