%chk=mol_3470.chk
# wB97XD/Def2SVP opt pop=full gfinput

C 5 H 8 O 2

1 2
C    2.748758   1.241815  -0.825130
O    5.184558   1.635615   0.260688
C    7.090536   1.665416  -1.457678
O    6.866055   1.384017  -3.739560
C    9.568779   2.102509  -0.214560
C   11.931580   0.841476  -1.206987
C   11.588916   3.639688  -1.524007
H    1.366990   1.150711   0.709932
H    2.687795  -0.548266  -1.862779
H    2.247848   2.823118  -2.063090
H    9.455547   2.318562   1.823794
H   11.780401  -0.334179  -2.880056
H   13.313858   0.187499   0.155638
H   12.736093   4.889950  -0.377057
H   11.207096   4.346068  -3.411296

