%chk=mol_6009.chk
# wB97XD/Def2SVP opt pop=full gfinput

C 4 H 3 N 1 O 2

1 2
O    1.942090   0.079614   0.342097
C    4.248464   0.040799   0.127084
O    5.644952   2.176171   0.030236
C    8.170023   1.944150  -0.208116
N    9.451314  -0.121472  -0.359048
C    8.083833  -2.295469  -0.265525
C    5.582516  -2.364898  -0.033996
H    9.075145   3.815565  -0.263333
H    9.158161  -4.042464  -0.392345
H    4.496943  -4.091389   0.040270

