%chk=mol_0870.chk
# wB97XD/Def2SVP opt pop=full gfinput

C 6 H 8

1 2
C    1.934702   0.131298   0.342607
C    4.728170  -0.309273   0.053404
C    5.687037  -2.655103  -0.123739
C    6.377504   2.016149  -0.105239
C    6.551265   3.273818   2.366277
C    6.702065   4.309143   4.381009
H    1.524688   1.092507   2.127416
H    0.865646  -1.641038   0.328227
H    1.228171   1.298979  -1.212486
H    4.486909  -4.317041  -0.029914
H    7.701144  -2.978549  -0.348654
H    5.604720   3.315695  -1.521551
H    8.282802   1.518603  -0.752376
H    6.834100   5.220123   6.171694

