%chk=mol_6053.chk
# wB97XD/Def2SVP opt pop=full gfinput

C 4 H 8 N 2 O 1

1 2
O    1.744935  -0.002589   0.312164
C    4.457202   0.049057   0.193281
C    5.315025   2.459308  -1.155719
N    7.648988   2.084765  -2.528945
C    7.804078  -0.071016  -3.924942
N    6.762877  -2.198715  -3.444366
C    5.411098  -2.416128  -1.021170
H    1.198748   1.421036   1.335432
H    5.120005   0.085831   2.156178
H    5.563089   3.980292   0.228770
H    3.850430   3.113173  -2.468530
H    8.281082   3.662119  -3.421028
H    8.950102   0.160589  -5.651283
H    3.832932  -3.729204  -1.294368
H    6.706733  -3.346440   0.306325

