%chk=mol_3600.chk
# wB97XD/Def2SVP opt pop=full gfinput

C 5 H 4 O 2

1 2
O    2.004206   0.109169   0.951912
C    4.237314  -0.061964   0.460299
C    6.308473   1.807032  -0.250521
O    8.035192  -0.303339  -0.469862
C    6.204443  -2.176757   0.346651
C    5.802933  -4.049135  -1.593190
C    5.475160  -5.629154  -3.190274
H    6.854037   3.106313   1.255043
H    6.026809   2.782036  -2.044533
H    6.699136  -2.937239   2.204857
H    5.188130  -7.041970  -4.597571

