%chk=mol_0322.chk
# wB97XD/Def2SVP opt pop=full gfinput

C 5 H 9 N 1

1 2
C    1.558438   0.150914   0.113667
C    4.311656   0.142032   0.732760
C    6.046519   1.535251  -0.487530
C    8.752096   1.575143   0.066896
C   10.400392  -0.526780  -0.917953
N   10.452000   1.974159  -2.069118
H    0.952138  -1.751549  -0.425793
H    1.108362   1.436891  -1.443052
H    0.466366   0.736407   1.769426
H    4.901836  -1.088992   2.267520
H    5.427501   2.759567  -2.021724
H    9.283714   2.487673   1.824039
H    9.550241  -2.012067  -2.040810
H   12.040881  -1.075859   0.173477
H   12.012384   2.961277  -1.512046

