%chk=mol_3339.chk
# wB97XD/Def2SVP opt pop=full gfinput

C 5 H 8 O 2

1 2
C    4.096529  -0.739355  -3.021899
O    4.099005   0.458939  -0.618129
C    6.021499   2.324949  -0.387772
C    6.474070   2.967418   2.407133
O    6.506781   5.687357   2.686491
C    5.508344   6.537054   0.439531
C    5.157441   4.811489  -1.346109
H    2.568591  -2.130024  -3.049848
H    5.885836  -1.726511  -3.338749
H    3.762199   0.631301  -4.532603
H    7.782006   1.714303  -1.293536
H    8.298656   2.230519   3.051624
H    5.000858   2.196636   3.645168
H    5.159425   8.541279   0.359105
H    4.428970   5.174524  -3.213952

