%chk=mol_3565.chk
# wB97XD/Def2SVP opt pop=full gfinput

C 7 H 14

1 2
C    5.855865  -1.829236  -1.738850
C    4.781857  -0.133717   0.325789
C    5.755973   2.605195   0.195813
C    4.453744   4.218587   2.213153
C    8.585555   2.745885   0.550439
C   10.177045   3.702559  -1.178792
C   12.978186   3.833668  -0.841079
H    4.975158  -3.699101  -1.649353
H    7.896089  -2.088374  -1.523630
H    5.489919  -1.038367  -3.614687
H    5.214227  -0.966406   2.174980
H    2.715914  -0.125478   0.147153
H    5.244255   3.386238  -1.657309
H    4.848792   3.515646   4.121058
H    2.401256   4.209119   1.945870
H    5.090355   6.186718   2.115832
H    9.332299   2.011821   2.321642
H    9.443112   4.435357  -2.951299
H   13.585222   3.063473   0.979955
H   13.609052   5.799607  -0.953594
H   13.916831   2.761891  -2.340142

