%chk=mol_4322.chk
# wB97XD/Def2SVP opt pop=full gfinput

C 5 H 9 N 1 O 1

1 2
C    1.840121   0.068068  -0.163159
C    4.670874  -0.157868   0.017026
C    5.649034  -2.813594  -0.258722
C    6.103097   1.909323   0.410260
C    8.906449   1.961592   0.486038
N    9.851823   3.976683   1.774623
O   10.285099   0.405875  -0.512380
H    1.194836   2.027808   0.003250
H    0.933430  -1.020962   1.345145
H    1.179756  -0.655565  -1.986348
H    4.454973  -4.127181   0.808689
H    7.563440  -3.063435   0.470636
H    5.615831  -3.383384  -2.247111
H    5.203342   3.739617   0.620870
H    8.775038   5.241723   2.708752
H   11.753000   4.095811   1.927332

