%chk=mol_1292.chk
# wB97XD/Def2SVP opt pop=full gfinput

C 6 H 13 N 1

1 2
C    1.792915  -0.393365   0.117522
C    4.642320  -0.614955   0.426984
C    5.969607   1.876857  -0.216865
C    8.869279   1.697749  -0.042613
N   10.007291   4.066804  -0.899793
C    9.773966   1.199693   2.602682
C   11.115747  -0.832632   3.299141
H    0.880178  -2.191402   0.578842
H    1.292799   0.099192  -1.828575
H    1.022380   1.058511   1.374058
H    5.343257  -2.122786  -0.808160
H    5.055603  -1.172481   2.377219
H    5.265533   3.370875   1.040597
H    5.438519   2.428563  -2.146049
H    9.523029   0.192091  -1.308900
H    9.239929   5.537389   0.075551
H    9.539924   4.358729  -2.743637
H    9.299702   2.597164   4.033696
H   11.660120  -2.276289   1.947949
H   11.721612  -1.072155   5.243801

