%chk=mol_1262.chk
# wB97XD/Def2SVP opt pop=full gfinput

C 6 H 11 N 1

1 2
C    5.311642  -2.999071   2.621050
C    4.630188  -0.260442   2.184051
C    2.435762   0.643527   3.107258
C    6.540626   1.228039   0.622419
N    5.694576   3.764353  -0.049681
C    9.024217   1.485835   1.983664
C   11.232759   0.573267   1.139202
H    7.017347  -3.155332   3.778791
H    5.645783  -3.952532   0.815511
H    3.806381  -4.030427   3.596735
H    1.161029  -0.552839   4.183891
H    1.827951   2.580591   2.836403
H    6.821760   0.203845  -1.159215
H    5.332014   4.746671   1.560271
H    4.033148   3.617711  -1.003539
H    8.997969   2.483251   3.780019
H   11.370502  -0.421938  -0.648667
H   12.956643   0.834484   2.219068

