%chk=mol_6596.chk
# wB97XD/Def2SVP opt pop=full gfinput

C 4 H 6 N 2 S 1

1 2
C    5.913728  -2.262701   0.791531
N    4.891065  -0.059885  -0.456501
C    5.990734   2.246639  -0.282438
N    4.619681   4.344820  -0.454498
S    6.487335   6.838787  -0.192658
C    9.224736   5.166455   0.147191
C    8.648804   2.626606   0.053215
H    4.670231  -3.882291   0.459959
H    6.044119  -1.967696   2.835572
H    7.781174  -2.756147   0.051042
H    2.969799   0.010393  -0.455840
H   11.037683   6.076017   0.375678
H   10.050112   1.149653   0.196191

