%chk=mol_6454.chk
# wB97XD/Def2SVP opt pop=full gfinput

C 5 H 7 N 1 S 1

1 2
C    1.781388   0.032654  -0.014721
C    4.601124   0.055331  -0.002098
C    6.049713   2.232995   0.003666
S    9.225472   1.636238   0.019502
C    8.716664  -1.553298   0.019370
C    6.185489  -2.132027   0.006557
N    5.320297  -4.522096   0.003515
H    1.008944   1.951974   0.001285
H    1.060023  -0.958016   1.651980
H    1.076086  -0.924284  -1.707783
H    5.391615   4.167583  -0.000416
H   10.305263  -2.835288   0.028799
H    3.453852  -4.954711  -0.041328
H    6.484160  -6.046292  -0.024113

