%chk=mol_6819.chk
# wB97XD/Def2SVP opt pop=full gfinput

C 7 H 10

1 2
C    2.106345   2.269240  -0.602161
C   -0.342815   2.946253   0.758158
C   -2.610921   1.572460  -0.212689
C   -2.858759  -0.942728  -0.371558
C   -1.030732  -2.985767   0.348390
C    1.759581  -2.468984   0.298350
C    3.077759  -0.349618  -0.143336
H    3.562020   3.591141   0.059867
H    1.929089   2.578305  -2.644199
H   -0.167656   2.644880   2.801954
H   -0.675180   4.977917   0.506031
H   -4.202260   2.745526  -0.780381
H   -4.670043  -1.651923  -1.049516
H   -1.352212  -4.563065  -0.961738
H   -1.544265  -3.685741   2.230066
H    2.878506  -4.169549   0.628183
H    5.131003  -0.509149  -0.166693

