%chk=mol_0375.chk
# wB97XD/Def2SVP opt pop=full gfinput

C 4 H 8 N 2

1 2
C    1.930034   0.129522   0.143808
C    4.733008  -0.161099  -0.029291
C    5.949501  -2.365540   0.260669
C    6.203498   2.184656  -0.559775
N    8.639828   2.260642  -0.807423
N    9.530324   4.613464  -1.269216
H    1.432167   1.441370   1.664357
H    0.990708  -1.672975   0.533035
H    1.169117   0.866175  -1.633630
H    4.936720  -4.105713   0.645455
H    7.994449  -2.493059   0.114593
H    5.043433   3.915815  -0.740999
H   11.367421   4.480692  -1.859793
H    9.629647   5.625772   0.375715

