%chk=mol_3528.chk
# wB97XD/Def2SVP opt pop=full gfinput

C 6 H 8 O 1

1 2
O    2.967701   0.079142   2.588150
C    4.548458   0.023395   0.897053
C    5.614301  -2.385477  -0.243283
C    7.415361  -1.489444  -2.252176
C    9.806960  -0.094978  -1.585046
C    7.458258   1.343312  -2.302820
C    5.684372   2.361005  -0.327773
H    4.075119  -3.481575  -1.074631
H    6.596391  -3.476246   1.207384
H    7.327507  -2.538998  -4.002799
H   10.428453  -0.070241   0.367552
H   11.347862  -0.141937  -2.936805
H    7.398864   2.333112  -4.088649
H    6.699041   3.475849   1.086233
H    4.175237   3.474488  -1.198143

