%chk=mol_3677.chk
# wB97XD/Def2SVP opt pop=full gfinput

C 5 H 8 O 2

1 2
O    4.491293  -0.666525  -2.806999
C    4.427062   0.306551  -0.295156
C    6.248096   2.537014   0.014721
O    6.351426   3.256905   2.647714
C    5.965771   5.940921   2.834570
C    5.268840   6.792110   0.262596
C    5.421190   4.861264  -1.343633
H    3.306605  -2.070837  -2.857342
H    4.950421  -1.213941   1.008377
H    2.484555   0.863869   0.158038
H    8.152807   2.004659  -0.602237
H    7.714977   6.827940   3.489020
H    4.457392   6.297833   4.201541
H    4.744479   8.702057  -0.220399
H    5.049405   4.931996  -3.348122

