%chk=mol_3701.chk
# wB97XD/Def2SVP opt pop=full gfinput

C 5 H 6 O 2

1 2
O    2.226513  -1.026405  -0.773181
C    4.404498  -0.531958  -0.177237
C    5.434720   2.041018  -0.479386
C    7.823920   2.560522   0.181527
C    9.046251   5.038369  -0.031294
C    8.612144   6.967269   2.022272
O   11.023547   5.792426   1.668553
H    5.697676  -1.965391   0.608945
H    4.161139   3.447276  -1.249222
H    9.019077   1.069358   0.943502
H    9.210393   5.730783  -1.956604
H    7.550212   6.444269   3.691693
H    8.431013   8.932792   1.481829

