%chk=mol_5849.chk
# wB97XD/Def2SVP opt pop=full gfinput

C 6 H 9 N 1

1 2
C    1.807391   0.128860   0.001304
C    4.612349   0.070128  -0.035640
C    6.198604   2.057893   0.003496
C    8.770030   1.158327   0.015628
C    8.770427  -1.376344  -0.009392
C    6.110184  -2.351821  -0.026834
N    5.673638  -3.886751  -2.253253
H    1.093282   2.067795   0.108792
H    1.087934  -0.903837   1.642267
H    1.033983  -0.734877  -1.710561
H    5.679855   4.030389   0.037247
H   10.412675   2.366183   0.037247
H   10.426262  -2.567023  -0.005159
H    5.738437  -3.442854   1.692590
H    5.948688  -2.780789  -3.805209
H    3.827319  -4.414362  -2.292880

