%chk=mol_4088.chk
# wB97XD/Def2SVP opt pop=full gfinput

C 5 H 9 N 1 O 1

1 2
C    1.739304   0.063854  -0.478498
C    4.422772   0.687331   0.105031
N    6.441850  -0.925588  -0.836865
C    6.173017   1.621593  -1.946909
C    8.385660   3.300445  -1.503976
C    8.671803   4.490859   1.056621
O    9.854998   3.735006  -3.245057
H    0.561513   1.748564  -0.258552
H    1.042751  -1.381201   0.826264
H    1.496871  -0.639143  -2.408645
H    4.648745   1.360263   2.024747
H    5.803349  -2.249454  -2.088544
H    5.453976   1.678700  -3.866493
H    6.961033   5.541376   1.538842
H   10.262252   5.811097   1.026461
H    9.051126   3.039284   2.474748

