%chk=mol_2499.chk
# wB97XD/Def2SVP opt pop=full gfinput

C 7 H 14

1 2
C    1.987595   0.183681  -0.165294
C    4.804080   0.119979  -0.102045
C    6.361026  -1.288340  -2.044041
C    5.195934  -2.718636  -4.175274
C    6.474107   1.588012  -1.937763
C    5.324889   3.153669  -4.024947
C    8.851043   2.755731  -0.865740
H    1.293763   1.673523   1.090051
H    1.232442  -1.618815   0.512532
H    1.200902   0.528897  -2.041320
H    5.442581  -0.030821   1.846489
H    7.996509  -2.315500  -1.341857
H    3.450621  -1.877141  -4.888665
H    4.753833  -4.644550  -3.561850
H    6.531442  -2.845436  -5.749360
H    3.648702   2.305390  -4.879519
H    6.707016   3.437809  -5.540016
H    4.779269   5.013179  -3.298347
H    9.658977   1.612012   0.658966
H    8.446509   4.634950  -0.101119
H   10.287178   2.945441  -2.343034

