%chk=mol_4279.chk
# wB97XD/Def2SVP opt pop=full gfinput

C 5 H 5 N 1 O 1

1 2
C    5.459589  -2.094724   0.701674
C    4.324827   0.121075   0.247762
C    5.686621   2.434761   0.121226
N    4.662446   4.681173  -0.321726
C    6.632882   6.362009  -0.279793
C    8.837531   5.099785   0.191354
O    8.280458   2.608937   0.451569
H    4.362565  -3.825259   0.785597
H    7.484846  -2.246884   0.998512
H    2.297775   0.215259  -0.041498
H    6.352352   8.359694  -0.587705
H   10.798065   5.626962   0.387658

