%chk=mol_2328.chk
# wB97XD/Def2SVP opt pop=full gfinput

C 6 H 8 O 1

1 2
C    1.866879   0.010564   0.010375
C    4.694269   0.077479  -0.004214
C    5.984366   2.262210  -0.016535
C    8.694441   2.278858  -0.045977
C    9.924463   0.071205  -0.008579
C    8.541487  -2.402466   0.059810
O    5.829068  -2.268408  -0.010601
H    1.166830  -1.936648  -0.018916
H    1.103865   0.976384  -1.652471
H    1.124689   0.919579   1.714076
H    5.013727   4.069449  -0.011867
H    9.684639   4.071283  -0.092899
H   11.972530   0.024113  -0.022733
H    9.136146  -3.558014  -1.551333
H    9.060953  -3.424467   1.783410

