%chk=mol_6695.chk
# wB97XD/Def2SVP opt pop=full gfinput

C 4 H 5 N 1 O 1 S 1

1 2
O    4.762979  -1.213393  -2.481210
C    4.547342  -0.180299  -0.002872
C    5.544476   2.465299  -0.033788
N    4.147760   4.503312   0.305984
C    5.649412   6.631994   0.181092
C    8.186407   6.200607  -0.208720
S    8.730723   3.017911  -0.433938
H    3.840774  -2.799969  -2.467907
H    5.603491  -1.368691   1.319747
H    2.551489  -0.183757   0.541407
H    4.788509   8.477160   0.393044
H    9.700304   7.560606  -0.366097

