%chk=mol_5175.chk
# wB97XD/Def2SVP opt pop=full gfinput

C 4 H 8 N 2 O 1

1 2
C    2.340898   0.592731  -2.773249
N    4.902006   0.230225  -1.816178
C    6.006155   2.247659  -1.054826
N    8.427234   2.222979  -0.101252
C    9.821908  -0.136174   0.033108
C    9.612394   4.436812   0.611062
O   11.794612   4.655454   1.350984
H    2.165740  -0.327395  -4.617092
H    1.807429   2.579382  -3.011657
H    0.987080  -0.292114  -1.484323
H    5.120043   4.135873  -1.098649
H    8.612105  -1.630853   0.793779
H   11.502499   0.039287   1.222407
H   10.399805  -0.661990  -1.882148
H    8.380198   6.108786   0.433522

