%chk=mol_2398.chk
# wB97XD/Def2SVP opt pop=full gfinput

C 6 H 6 O 1

1 2
C    1.743934   0.004233  -0.244285
C    4.258743   0.013965   0.063400
C    5.650262   2.380261   0.232928
C    8.163579   2.268182   0.545129
O    9.517001   0.033864   0.715488
C    8.180814  -2.210545   0.548436
C    5.667723  -2.341749   0.236310
H    0.678827  -1.744312  -0.373731
H    0.666034   1.744897  -0.376244
H    4.673349   4.174688   0.109264
H    9.394527   3.890171   0.696137
H    9.423252  -3.822746   0.701674
H    4.704360  -4.143810   0.115122

