%chk=mol_2754.chk
# wB97XD/Def2SVP opt pop=full gfinput

C 7 H 12

1 2
C    5.800457  -4.691566  -2.419322
C    5.614036  -3.190066  -0.013776
C    4.715112  -4.221440   2.122616
C    6.407475  -0.442744  -0.139065
C    9.245599  -0.097982  -0.617487
C    9.973635   2.649245  -0.629524
C   10.943460   3.850978  -2.634032
H    4.769801  -3.742055  -3.940570
H    4.999384  -6.588511  -2.211490
H    7.774371  -4.909811  -2.993440
H    4.115805  -6.183524   2.200794
H    4.545547  -3.135415   3.856118
H    5.894301   0.521300   1.626412
H    5.318408   0.495146  -1.635161
H    9.778823  -0.981410  -2.414522
H   10.332720  -1.055790   0.864720
H    9.702327   3.691334   1.122516
H   11.259876   2.891564  -4.420315
H   11.444484   5.838403  -2.526942

