%chk=mol_1851.chk
# wB97XD/Def2SVP opt pop=full gfinput

C 5 H 8 N 2

1 2
C    8.476707  -3.578253  -1.814628
N    7.521583  -1.547100  -0.862131
N    9.280520   0.405630  -0.905595
C    8.333485   2.439145   0.051911
C    9.961086   4.703132   0.164482
C   10.372083   6.269696  -2.183012
C    8.806880   7.301732  -0.055974
H    7.329775  -5.309752  -1.924289
H   10.426507  -3.685608  -2.544516
H    6.390487   2.568686   0.798901
H   11.562630   4.510134   1.432715
H    9.415844   5.703722  -3.904987
H   12.238320   7.057881  -2.485084
H    9.608218   8.803289   1.084646
H    6.785931   7.464154  -0.351886

