%chk=mol_5110.chk
# wB97XD/Def2SVP opt pop=full gfinput

C 4 H 9 N 1 O 2

1 2
C    0.420124  -3.291279   1.277965
N    2.353635  -2.197506  -0.386468
C    3.729488  -4.263903  -1.651734
C    4.141883  -0.645852   1.152676
C    5.453259   1.292799  -0.539290
O    4.188937   1.656043  -2.744109
O    7.350581   2.471573   0.039760
H    1.243799  -4.478405   2.762080
H   -0.913701  -4.436888   0.184437
H   -0.689089  -1.792367   2.177966
H    2.433022  -5.364139  -2.833380
H    4.629583  -5.549048  -0.299314
H    5.192155  -3.519313  -2.912503
H    5.555549  -1.819523   2.105438
H    3.103157   0.457729   2.565587
H    2.755145   0.458920  -2.723341

