%chk=mol_1936.chk
# wB97XD/Def2SVP opt pop=full gfinput

C 5 H 8 N 2

1 2
N    1.657724   0.078802  -0.003383
C    4.101556   0.041895   0.049360
C    5.411231  -2.527074   0.091595
C    8.228945  -2.323003   0.049983
C    9.444625  -0.102612  -0.024982
C    8.180246   2.423120  -0.076477
N    5.463482   2.232258   0.085038
H    1.040105   1.905638  -0.008504
H    4.764548  -3.613629  -1.548083
H    4.810204  -3.528289   1.801193
H    9.294429  -4.076914   0.080994
H   11.498719  -0.092408  -0.056560
H    8.869033   3.562171   1.507642
H    8.691984   3.404814  -1.824776
H    4.520433   3.886845  -0.033732

