%chk=mol_4252.chk
# wB97XD/Def2SVP opt pop=full gfinput

C 5 H 5 N 1 O 1

1 2
C    5.050803  -2.206236   0.724067
C    4.183343   0.135437   0.308592
C    5.684977   2.356980   0.135531
C    4.783143   4.751036  -0.290545
O    6.737289   6.412389  -0.341247
N    8.982926   5.123312   0.055161
C    8.317630   2.703178   0.335993
H    3.749840  -3.790961   0.825773
H    7.042442  -2.625037   0.972529
H    2.149261   0.361221   0.084074
H    2.934613   5.563920  -0.581488
H    9.783169   1.321523   0.671646

