%chk=mol_6611.chk
# wB97XD/Def2SVP opt pop=full gfinput

C 5 H 6 O 1 S 1

1 2
C    5.636770  -2.320659   1.003558
O    4.407503   0.020881   0.529690
C    5.829862   2.113678   0.366493
C    4.888741   4.509208  -0.083526
C    6.789408   6.412257  -0.169754
C    9.158841   5.419394   0.219359
S    9.067378   2.229518   0.680736
H    4.185611  -3.792151   1.072401
H    6.600020  -2.303689   2.834684
H    6.945896  -2.801991  -0.524720
H    2.890941   4.863361  -0.340377
H    6.433214   8.401685  -0.499814
H   10.943291   6.415185   0.255094

