%chk=mol_5221.chk
# wB97XD/Def2SVP opt pop=full gfinput

C 4 H 6 N 2 O 1

1 2
C   11.704926   6.268939  -0.661310
N   10.343322   6.193748   1.362020
N    8.767479   4.191602   1.367784
C    8.573045   3.334308   3.993464
C    6.533483   4.928274   2.850274
C    4.168036   3.746382   1.977050
O    2.364123   3.491042   3.404984
H   13.079853   7.810862  -0.913834
H   11.584909   4.858864  -2.195994
H    9.808208   4.179470   5.390708
H    8.221594   1.335621   4.252394
H    6.375256   6.873577   3.470236
H    4.088309   3.130974  -0.013738

