%chk=mol_6809.chk
# wB97XD/Def2SVP opt pop=full gfinput

C 5 H 12 N 2

1 2
C    1.664679  -0.198969   0.262313
C    4.526329  -0.024453  -0.079633
C    5.353122  -0.097680  -2.859628
N    4.431332   2.090339  -4.275506
C    5.836514   2.002222   1.579452
N    7.715620   0.097680   2.383530
C    5.991528  -1.941391   1.587899
H    1.142925  -0.306835   2.263382
H    0.910961  -1.885172  -0.671306
H    0.710102   1.457962  -0.525873
H    4.665734  -1.830049  -3.764297
H    7.419462  -0.126385  -3.005628
H    2.514243   1.997100  -4.441386
H    5.111483   2.009629  -6.077529
H    4.694250   2.716954   3.154520
H    6.641650   3.628803   0.587081
H    9.341747   0.178163   1.350720
H    6.912259  -3.505177   0.594319
H    4.915215  -2.741237   3.168447

