%chk=mol_4729.chk
# wB97XD/Def2SVP opt pop=full gfinput

C 4 H 10 N 2 O 1

1 2
C    4.823035  -2.050202   1.495907
C    5.224016  -0.027533  -0.500929
N    6.909198   1.904409   0.538459
C    7.415626   3.671530  -1.053919
N    8.937554   5.682085  -0.507599
O   10.330963   6.487278  -2.603457
C   10.661192   9.146521  -2.330146
H    3.552704  -3.523300   0.792079
H    3.993955  -1.241134   3.210815
H    6.617991  -2.935954   2.020590
H    3.394496   0.800129  -1.011381
H    6.054683  -0.893028  -2.190495
H    6.644674   3.724121  -2.994422
H    9.995555   5.361021   1.067374
H   11.730229   9.834815  -3.958372
H   11.733668   9.571312  -0.611893
H    8.829216  10.107484  -2.290783

