%chk=mol_1902.chk
# wB97XD/Def2SVP opt pop=full gfinput

C 6 H 11 N 1

1 2
N    1.982115   0.102763   0.797124
C    4.683667   0.021241   0.168280
C    5.360548  -2.468606  -1.190168
C    4.895430  -1.934947  -3.944879
C    6.863334  -0.717435  -5.594704
C    4.895505   0.877551  -4.304985
C    5.360756   2.088034  -1.774472
H    1.571836   1.770106   1.665605
H    1.570155  -1.294198   2.056060
H    5.766443   0.245362   1.916976
H    4.237862  -4.071793  -0.515725
H    7.358650  -2.927526  -0.883919
H    3.368116  -3.012167  -4.767533
H    8.797034  -0.631792  -4.925552
H    6.699684  -0.977158  -7.620718
H    3.368550   1.712281  -5.373209
H    7.359085   2.609485  -1.593549
H    4.238996   3.810179  -1.525614

