%chk=mol_6844.chk
# wB97XD/Def2SVP opt pop=full gfinput

C 5 H 12 N 2

1 2
C    1.730366   0.037870  -0.276089
C    4.562366   0.041404   0.073624
N    5.397511  -0.182245   2.718579
C    6.159203  -1.216436  -1.933360
C    6.080780   1.626827  -1.769275
C    8.348489   3.109299  -0.987703
N    9.873933   3.565195  -3.238424
H    1.192984   0.182566  -2.271073
H    0.879819   1.636200   0.727204
H    0.912568  -1.711544   0.470088
H    7.249821  -0.691432   2.835591
H    4.427931  -1.589921   3.610908
H    5.218857  -2.094213  -3.529687
H    7.880763  -2.176889  -1.380199
H    5.023138   2.633503  -3.213630
H    9.496271   2.119139   0.419784
H    7.755965   4.917729  -0.177634
H   10.491986   1.876422  -3.924829
H   11.448396   4.550498  -2.733016

