%chk=mol_5113.chk
# wB97XD/Def2SVP opt pop=full gfinput

C 4 H 9 N 1 O 2

1 2
C    3.291487  -1.765590   0.286539
N    5.872173  -1.452084  -0.666620
C    6.749894   1.157306  -0.214389
C    9.532308   1.385320  -0.925852
C   11.253527  -0.051646   0.840210
O   10.401676  -2.373874   1.478465
O   13.316825   0.739639   1.522968
H    2.668274  -3.706169  -0.055482
H    1.974140  -0.489666  -0.673102
H    3.203237  -1.429748   2.324968
H    5.819997  -1.758957  -2.580497
H    6.511675   1.651092   1.784941
H    5.630685   2.480436  -1.348414
H   10.070124   3.383933  -0.825413
H    9.883325   0.734574  -2.860119
H    8.687600  -2.681351   0.785880

