%chk=mol_1635.chk
# wB97XD/Def2SVP opt pop=full gfinput

C 6 H 13 N 1

1 2
C    1.981567  -0.061964   0.107809
N    4.728869  -0.119487   0.090027
C    5.815160   1.838231   1.762548
C    7.850471  -0.098757   2.529965
C    5.900670  -2.133879   1.679759
C    4.339473  -3.206563   3.862600
C    7.008654  -4.217056   0.022715
H    1.226772  -1.771392  -0.780495
H    1.321504   1.544662  -1.018109
H    1.138541   0.122190   1.988105
H    4.617149   2.454546   3.338692
H    6.525470   3.513870   0.781118
H    9.568213   0.001946   1.374209
H    8.389421  -0.092672   4.524760
H    3.582543  -1.731027   5.101448
H    5.513011  -4.436548   5.045833
H    2.756808  -4.346673   3.170242
H    8.140298  -3.449242  -1.532870
H    5.510952  -5.383206  -0.804702
H    8.239263  -5.458417   1.131511

