%chk=mol_5709.chk
# wB97XD/Def2SVP opt pop=full gfinput

C 5 H 9 N 1 O 1

1 2
N    1.917089  -0.023263   0.049227
C    4.667624   0.000000   0.000000
C    5.578509   2.572238   0.000000
C    6.329260   4.692322   0.000000
C    7.240146   7.264561   0.000000
C    5.073688   9.168743  -0.054689
O    6.030022  11.683855   0.021581
H    1.303401  -1.837948  -0.110133
H    1.262980   0.909242  -1.503126
H    5.332297  -1.004182  -1.683009
H    5.381657  -1.022021   1.650770
H    8.481714   7.600687  -1.624635
H    8.413458   7.614614   1.672030
H    3.791206   8.908434   1.549311
H    3.962567   8.964767  -1.788796
H    6.789370  11.932467   1.677642

