%chk=mol_2190.chk
# wB97XD/Def2SVP opt pop=full gfinput

C 6 H 8 O 1

1 2
C   -1.941901  -0.085340   2.138924
C   -1.160972   1.902123   0.128426
C    1.702265   2.429961  -0.013171
C    3.102534  -0.068125  -0.037360
C    1.770881  -2.232730  -0.010318
C   -1.032924  -1.914425   0.025908
O   -1.895074   0.017801  -1.818691
H   -0.888568  -0.078386   3.915305
H   -3.971411  -0.165842   2.531118
H   -2.353106   3.589365   0.056219
H    2.148524   3.496107  -1.729496
H    2.300061   3.547054   1.622840
H    5.151205  -0.070203  -0.098228
H    2.625642  -4.090218  -0.049171
H   -2.092059  -3.680242  -0.144111

