%chk=mol_4447.chk
# wB97XD/Def2SVP opt pop=full gfinput

C 4 H 7 N 1 O 2

1 2
C    2.435479  -0.350884  -0.612517
C    4.862946   0.894483   0.210629
C    7.155561  -0.775147   0.496148
C    8.672860  -0.853419  -1.893751
O    9.096480  -2.812309  -3.060336
N    4.863418   3.329074   0.539725
O    7.254904   4.224539   1.215226
H    0.930123   1.048042  -0.825470
H    1.868372  -1.744520   0.803058
H    2.733848  -1.302135  -2.422364
H    6.544632  -2.693956   0.971773
H    8.370447  -0.115028   2.031985
H    9.444360   0.971754  -2.546538
H    6.934407   6.018816   1.511441

