%chk=mol_4776.chk
# wB97XD/Def2SVP opt pop=full gfinput

C 4 H 10 N 2 O 1

1 2
C    2.234318  -0.934942  -0.646853
C    4.974950  -0.867592   0.151348
N    6.059898  -2.908723   0.946696
N    6.209489   1.402876   0.072943
C    8.953315   1.673806   0.172778
C   10.023164   1.128431   2.810514
O   10.309155  -1.511101   3.255072
H    1.825948   0.592731  -1.977088
H    1.041277  -0.712465   1.026027
H    1.797564  -2.740160  -1.553941
H    4.814096  -4.397714   0.889853
H    5.315082   2.836006  -0.833993
H    9.398931   3.634775  -0.318986
H    9.826198   0.449604  -1.250262
H    8.822640   1.920642   4.298012
H   11.905047   1.969416   2.982706
H    8.755573  -2.298172   2.576169

