%chk=mol_4732.chk
# wB97XD/Def2SVP opt pop=full gfinput

C 5 H 7 N 1 O 1

1 2
C    1.689018   1.464878  -0.063778
C    4.148043   0.909450  -0.159228
N    5.979868   2.723171   0.091973
C    8.533021   2.192706  -0.000624
O    9.450671   0.086587  -0.311030
C   10.124473   4.489252   0.321688
C   12.649222   4.320103   0.281645
H    0.291301  -0.023017  -0.270401
H    0.997719   3.372726   0.216393
H    4.795785  -1.023910  -0.442933
H    5.414991   4.529749   0.356969
H    9.207615   6.297210   0.588706
H   13.598545   2.517455   0.015137
H   13.822893   5.983685   0.514894

