%chk=mol_3058.chk
# wB97XD/Def2SVP opt pop=full gfinput

C 6 H 6 O 1

1 2
C    1.641095   0.196286  -0.008636
C    4.471395   0.073945  -0.009184
C    5.573237  -2.516321  -0.020617
O    4.252299  -4.421260  -0.029045
C    5.931888   2.150489   0.000000
C    8.588843   2.150489   0.000000
C   10.837919   2.150489   0.000000
H    0.950494   2.147768  -0.000019
H    0.874263  -0.743588   1.667872
H    0.874263  -0.728735  -1.693403
H    7.649951  -2.651720  -0.021222
H    5.030867   3.997791   0.008164
H   12.851801   2.156650   0.000019

