%chk=mol_5160.chk
# wB97XD/Def2SVP opt pop=full gfinput

C 7 H 14

1 2
C    2.074674   2.012539   2.095782
C    4.192282   2.405697   0.193716
C    6.199530   4.213428   1.210729
C    8.262884   4.710502  -0.751242
C   10.268734   6.428924   0.276618
C   11.577048   8.283048  -1.444941
C    9.787326   9.220522   0.552613
H    0.667451   0.698613   1.339778
H    1.119568   3.798482   2.520932
H    2.801462   1.227831   3.866474
H    3.391321   3.155616  -1.563030
H    5.055093   0.577538  -0.254811
H    7.046902   3.424184   2.932326
H    5.313740   6.007685   1.754365
H    7.411695   5.522838  -2.457645
H    9.146388   2.921725  -1.311300
H   11.403477   5.511197   1.718781
H   10.974735   8.413760  -3.399787
H   13.580215   8.606928  -1.166566
H   10.581503  10.167917   2.186791
H    7.979180   9.969232  -0.051571

