%chk=mol_2744.chk
# wB97XD/Def2SVP opt pop=full gfinput

C 6 H 8 O 1

1 2
C    5.461252  -2.135750   0.447808
C    4.288866   0.088704   0.178466
C    5.467904   2.564377  -0.037114
C    3.994484   4.624878  -0.246647
C    8.308125   2.841525   0.026815
C    9.368620   2.418472  -2.587318
O   10.744397   3.944879  -3.671549
H    4.356235  -3.860597   0.599440
H    7.494900  -2.349497   0.545545
H    2.228063   0.056295   0.122076
H    1.945095   4.514310  -0.282155
H    4.804005   6.506837  -0.404194
H    9.198847   1.521551   1.345239
H    8.850627   4.745027   0.642375
H    8.941919   0.577311  -3.465720

