%chk=mol_2558.chk
# wB97XD/Def2SVP opt pop=full gfinput

C 6 H 10 O 1

1 2
C    1.814458   0.020371  -0.094316
C    4.690716  -0.026211  -0.014872
O    5.639547   0.238370  -2.508404
C    5.756011  -2.431473   1.218590
C    6.426732  -1.697106   3.933106
C    6.708603   1.106775   3.777676
C    5.755104   2.020287   1.622972
H    0.981448  -0.177767   1.788796
H    1.095342  -1.509457  -1.289492
H    1.127694   1.788229  -0.926457
H    7.452853   0.507486  -2.375990
H    7.461054  -3.076682   0.226446
H    4.419540  -4.012323   1.177545
H    8.176392  -2.613718   4.540370
H    4.913401  -2.193103   5.252966
H    7.514666   2.247678   5.270257
H    5.680498   4.003309   1.129149

