%chk=mol_3582.chk
# wB97XD/Def2SVP opt pop=full gfinput

C 5 H 8 O 2

1 2
O    2.151283   0.118731   0.964308
C    4.348940   0.009789   0.209230
C    5.719596  -2.482193  -0.028440
C    7.550760  -2.405130  -2.245467
C    9.184126  -0.036906  -2.151982
O    7.625234   2.158842  -2.285510
C    5.954659   2.362044  -0.191373
H    4.341948  -4.001080  -0.297972
H    6.734625  -2.819037   1.743801
H    8.739492  -4.098608  -2.241234
H    6.459916  -2.399763  -4.007089
H   10.344153   0.029801  -0.437018
H   10.459880   0.000926  -3.779906
H    7.038077   2.734113   1.532209
H    4.701488   3.968368  -0.542314

