%chk=mol_0416.chk
# wB97XD/Def2SVP opt pop=full gfinput

C 4 H 8 N 2

1 2
C    1.453918   0.222137  -0.053045
C    4.219154  -0.424886   0.140123
C    4.951272  -3.167181  -0.140180
N    5.817371   1.400344   0.525344
N    8.313680   0.595944   0.663086
C    9.800838   2.487919   1.053541
H    1.157533   2.254028   0.179732
H    0.412074  -0.785937   1.419524
H    0.745535  -0.356516  -1.906016
H    3.267752  -4.337488  -0.396767
H    5.944171  -3.804888   1.555982
H    6.172828  -3.395743  -1.790988
H   11.851134   2.177701   1.212335
H    9.122181   4.450173   1.242948

