%chk=mol_4027.chk
# wB97XD/Def2SVP opt pop=full gfinput

C 4 H 6 N 2 O 1

1 2
C    1.802969   0.035092  -0.002627
C    4.596249   0.064232  -0.003364
C    6.195788   2.123863  -0.084868
N    8.575161   1.156550  -0.095734
O   10.790620   2.509008  -0.300920
N    8.687298  -1.349246   0.018727
C    6.256411  -2.034857   0.046809
H    1.031866   1.955300   0.019407
H    1.086574  -0.962305   1.661296
H    1.092413  -0.920618  -1.693875
H    5.843052   4.129751  -0.159852
H   10.285798   4.043693   0.551214
H    5.790480  -4.027441   0.093712

