%chk=mol_3521.chk
# wB97XD/Def2SVP opt pop=full gfinput

C 7 H 12

1 2
C    4.177996  -1.228341   2.081212
C    4.847242   0.363224  -0.221589
C    4.488383   3.175137   0.213596
C    1.793445   3.990648   0.633209
C    6.503360   4.731061   0.138914
C    6.505401   7.435486   0.507751
C    8.603318   8.838721   0.341303
H    4.605905  -3.219678   1.716892
H    2.162527  -1.097080   2.534198
H    5.256859  -0.634438   3.744398
H    3.683964  -0.228921  -1.832297
H    6.807436  -0.053385  -0.748313
H    0.557337   3.120864  -0.781477
H    1.513028   6.029511   0.482957
H    1.149577   3.403170   2.509500
H    8.359053   3.905176  -0.219303
H    4.739868   8.382750   0.948038
H   10.436788   8.024042  -0.088496
H    8.523647  10.868647   0.634381

