%chk=mol_2106.chk
# wB97XD/Def2SVP opt pop=full gfinput

C 5 H 6 N 2

1 2
N    5.208746  -2.129117   0.279396
C    4.138103   0.062531   0.114631
N    5.564563   2.285794   0.065687
C    4.577011   4.695044  -0.106486
C    6.537810   6.408817  -0.103689
C    8.808203   5.014615   0.075835
C    8.161274   2.497519   0.176765
H    3.856893  -3.519067   0.288353
H    2.064129   0.242055   0.007710
H    2.556573   4.986609  -0.216733
H    6.351105   8.442409  -0.218604
H   10.712687   5.758751   0.126593
H    9.315349   0.812998   0.318948

