%chk=mol_4814.chk
# wB97XD/Def2SVP opt pop=full gfinput

C 5 H 11 N 1 O 1

1 2
C    5.231688  -2.964697  -0.742530
C    3.938775  -0.435204  -0.322614
O    2.122238  -0.689485   1.650355
C    5.749870   1.688395   0.378739
C    7.609833   1.144078   2.471365
C    6.484293   3.582070  -1.635501
N    4.653186   4.263014   0.309764
H    6.718657  -2.822911  -2.173714
H    3.851413  -4.379611  -1.359790
H    6.064811  -3.694755   1.007035
H    2.895079   0.051325  -2.045553
H    1.487479   1.021284   1.919357
H    8.651299   2.838728   3.046106
H    9.004961  -0.251655   1.854691
H    6.636529   0.408823   4.141429
H    5.736509   3.359215  -3.529234
H    8.314530   4.495413  -1.535686
H    5.463217   5.398891   1.646877

