%chk=mol_3918.chk
# wB97XD/Def2SVP opt pop=full gfinput

C 5 H 7 N 1 O 1

1 2
C    1.881336   0.095771   0.075230
C    4.665469  -0.071224  -0.039269
C    6.202686  -2.081004  -0.108130
C    8.920962  -1.373491  -0.225369
N    8.753117   1.316043  -0.220663
C    6.309002   2.176057  -0.113799
O    5.620310   4.366118  -0.087097
H    1.013479  -1.781161   0.032673
H    1.149426   1.170421  -1.533645
H    1.281442   1.036534   1.816821
H    5.565905  -4.020789  -0.082316
H    9.977716  -2.004811   1.431864
H    9.832056  -2.008193  -1.965561
H   10.222001   2.533934  -0.288599

