%chk=mol_3471.chk
# wB97XD/Def2SVP opt pop=full gfinput

C 5 H 8 O 2

1 2
C    2.436991   0.849867  -0.879970
O    5.067187   0.716168  -0.292038
C    6.321682   2.919476  -0.673687
O    5.421322   4.902006  -1.429880
C    9.005358   2.503490  -0.018859
C   10.700215   4.377739  -0.240241
C   13.439733   4.098797   0.371312
H    1.592945  -0.987892  -0.457144
H    2.167894   1.246898  -2.892131
H    1.501217   2.281901   0.281834
H    9.528944   0.634986   0.633058
H   10.095162   6.229747  -0.904272
H   13.906438   2.189172   1.014877
H   13.968629   5.429901   1.862287
H   14.580012   4.511041  -1.303835

