%chk=mol_5803.chk
# wB97XD/Def2SVP opt pop=full gfinput

C 4 H 7 N 1 O 2

1 2
N    1.700678   0.493237   1.539258
C    4.077046  -0.732250   0.777433
C    5.622143   0.969429  -0.971357
O    4.711957   2.494911  -2.460612
O    8.140789   0.384370  -0.700710
C    9.818583   1.719122  -2.233996
C   12.311906   1.558835  -1.897455
H    0.516613  -0.815473   2.303104
H    0.828513   1.182799  -0.042103
H    3.676991  -2.488732  -0.238427
H    5.169724  -1.158478   2.479736
H    8.954486   2.856208  -3.700216
H   13.109465   0.398014  -0.408086
H   13.602059   2.597202  -3.105689

