%chk=mol_4877.chk
# wB97XD/Def2SVP opt pop=full gfinput

C 4 H 9 N 1 O 2

1 2
C    1.946512  -0.280889  -0.255208
C    4.781820   0.080276   0.067822
O    6.110713  -1.401024  -1.731953
C    5.460855   2.894720  -0.070921
C    5.524577   4.156075  -2.633541
N    5.919208   4.083018   2.035367
O    6.506422   6.624945   1.605058
H    0.885696   0.804494   1.150068
H    1.447228  -2.280484  -0.070487
H    1.321845   0.319950  -2.135201
H    5.333979  -0.615181   1.939161
H    5.320184  -1.184159  -3.374389
H    4.795709   2.901958  -4.101216
H    7.474585   4.659290  -3.095768
H    4.357141   5.861061  -2.610260
H    6.869929   7.240202   3.304734

