%chk=mol_6255.chk
# wB97XD/Def2SVP opt pop=full gfinput

C 4 H 7 N 1 O 2

1 2
O    2.990605   3.953496  -2.102396
C    3.179955   3.130123   0.061700
C    5.125788   4.026421   1.974008
N    7.320818   5.099407   0.661329
C    8.978184   6.434971   2.429810
C   11.255247   7.421068   1.004597
O   12.004731   9.611487   1.155492
H    1.793331   1.756670   0.795801
H    5.707748   2.394755   3.104442
H    4.188861   5.409606   3.195791
H    6.668352   6.324724  -0.693076
H    9.675681   5.151847   3.895557
H    8.003500   8.029239   3.316980
H   12.310319   6.004416  -0.105787

