%chk=mol_5340.chk
# wB97XD/Def2SVP opt pop=full gfinput

C 5 H 5 N 1 O 1

1 2
C    2.096198  -0.251031  -1.078429
O    4.541484  -0.024963   0.010205
C    5.468886   2.529493   0.000000
C    4.524156   3.866247   2.183295
C    3.745513   4.968014   3.982787
C    8.197651   2.529493   0.000000
N   10.372745   2.529493   0.000000
H    1.520795  -2.232579  -0.968163
H    2.136600   0.307005  -3.069274
H    0.715620   0.889456  -0.045675
H    4.829668   3.468498  -1.735335
H    3.060733   5.943850   5.607252

