%chk=mol_2469.chk
# wB97XD/Def2SVP opt pop=full gfinput

C 5 H 8 O 2

1 2
C    1.843900   0.006860   0.023376
C    4.700750  -0.009600  -0.013568
C    5.878692   2.010291   1.646802
O    8.374529   1.123726   2.226286
C    8.171251  -1.549443   2.706712
C    5.864576  -2.282298   1.212165
O    5.073896  -4.445278   0.996490
H    1.090277  -1.519113  -1.154982
H    1.108003   1.801098  -0.697517
H    1.104961  -0.275673   1.937196
H    5.441183   0.110322  -1.942544
H    4.852703   2.280616   3.427869
H    6.009840   3.834557   0.682512
H    9.864428  -2.495062   2.007097
H    7.869595  -1.864933   4.724240

