%chk=mol_1291.chk
# wB97XD/Def2SVP opt pop=full gfinput

C 6 H 15 N 1

1 2
C    2.365956  -0.272007  -1.040162
C    5.211827  -0.086587  -0.665921
C    6.128552   2.648206  -0.915780
C    8.979260   2.985408  -0.414757
N   10.505196   1.570117  -2.237946
C    9.672714   5.809396  -0.527460
C   12.438177   6.339521   0.084131
H    1.750661  -2.240138  -0.883447
H    1.818635   0.424111  -2.909574
H    1.356219   0.832897   0.386808
H    6.134146  -1.292611  -2.073143
H    5.703137  -0.826623   1.203831
H    5.075143   3.822633   0.431576
H    5.657632   3.358176  -2.806565
H    9.416146   2.274833   1.483095
H    9.993401   2.052809  -4.031107
H   10.159583  -0.315924  -2.065735
H    8.502577   6.848991   0.832481
H    9.237151   6.583806  -2.399971
H   12.950180   5.574333   1.934418
H   12.776816   8.380425   0.117220
H   13.699891   5.520230  -1.336301

