%chk=mol_6431.chk
# wB97XD/Def2SVP opt pop=full gfinput

C 4 H 5 N 1 O 1 S 1

1 2
C    1.858432   0.000510   0.006501
C    4.668039   0.080502   0.006463
N    5.799059   2.331336   0.001890
S    8.904503   1.906620   0.003534
C    8.813267  -1.325000   0.011206
O   10.916135  -2.697773   0.015175
C    6.316315  -2.068759   0.012227
H    1.165866  -1.948704  -0.017763
H    1.105112   0.966633  -1.660805
H    1.107531   0.924756   1.698372
H   10.416738  -4.464799   0.019426
H    5.688019  -4.011775   0.016781

