%chk=mol_2732.chk
# wB97XD/Def2SVP opt pop=full gfinput

C 7 H 6

1 2
C    1.805010  -0.054859  -0.011660
C    4.641205  -0.083828  -0.004422
C    5.930584  -2.267237   0.004479
C    5.997480   2.244239  -0.004157
C    7.131411   4.212200  -0.002986
C    8.575974   6.719866  -0.001115
C    9.707845   8.684179   0.000151
H    1.065673   1.878690   0.018274
H    1.060458  -1.033000   1.653359
H    1.071154  -0.978595  -1.711997
H    4.961306  -4.075081   0.004800
H    7.982732  -2.308149   0.010582
H   10.712630  10.427812   0.001380

