%chk=mol_1438.chk
# wB97XD/Def2SVP opt pop=full gfinput

C 5 H 6 N 2

1 2
C    3.177631   2.928414  -2.744827
C    4.845693   2.432985  -1.285600
C    6.831058   1.838420   0.466895
N    9.039372   2.087240  -0.517804
N   10.877811   1.520757   1.156323
C   12.970646   0.437056  -0.294911
C   13.039904   3.135868   0.542257
H    1.713320   3.371574  -4.052310
H    6.375860   1.246822   2.411687
H   12.668743   0.027571  -2.278216
H   14.127177  -0.916971   0.709630
H   14.243830   3.628444   2.119592
H   12.786341   4.608929  -0.857123

