%chk=mol_5057.chk
# wB97XD/Def2SVP opt pop=full gfinput

C 5 H 11 N 1 O 1

1 2
C    2.956628  -0.364547   0.630450
N    5.590906   0.290753   1.098743
C    6.096275   3.014094   0.860109
C    4.604261   4.621212   2.749967
C    8.888459   3.352714   1.312963
C   10.735364   3.548263  -0.849923
O    9.885271   5.742575   0.493596
H    2.759284  -2.423385   0.618734
H    2.304351   0.342966  -1.201356
H    1.713736   0.344195   2.124090
H    6.682998  -0.648724  -0.181168
H    5.626036   3.633679  -1.065106
H    4.934415   3.998453   4.693683
H    2.573769   4.552350   2.374290
H    5.182479   6.603213   2.628401
H    9.533026   2.628099   3.113248
H   10.063227   3.306208  -2.765255
H   12.662923   2.942209  -0.535133

