%chk=mol_2104.chk
# wB97XD/Def2SVP opt pop=full gfinput

C 5 H 6 N 2

1 2
N    3.598076  -1.677963   0.524172
C    4.501479   0.441535  -0.267075
N    5.564847   2.286172   1.213393
C    7.717018   3.676802   0.151235
C    5.192268   4.920299   0.407841
C    4.829384   6.762517   2.355449
C    4.519053   8.306234   3.988645
H    2.923104  -2.707354  -0.969600
H    4.461379   0.884222  -2.308924
H    8.349661   3.055838  -1.688357
H    9.169140   4.038704   1.543150
H    4.058149   5.151261  -1.283578
H    4.239827   9.658731   5.451123

