%chk=mol_5256.chk
# wB97XD/Def2SVP opt pop=full gfinput

C 4 H 8 N 2 O 1

1 2
C    2.177947   1.169930  -1.495699
N    4.361148   0.693454  -0.516840
O    5.795450   2.926071  -0.514421
C    8.284540   2.351840   0.378304
C    9.860232   4.697198   0.211177
C   10.359100   6.285002   2.520687
N   12.364894   4.758992   1.395997
H    0.766643  -0.347691  -1.666266
H    1.634972   3.055290  -2.196769
H    9.110616   0.878968  -0.821048
H    8.163296   1.647142   2.323210
H    9.706824   5.612940  -1.613297
H    9.668028   5.642231   4.336695
H   10.515910   8.313056   2.305712
H   13.574602   5.858643   0.367117

