%chk=mol_2029.chk
# wB97XD/Def2SVP opt pop=full gfinput

C 6 H 9 N 1

1 2
N    2.228856   0.597588   0.074134
C    4.883695  -0.074380  -0.061397
C    5.424175  -1.432677  -2.414201
C    5.856942  -2.560862  -4.337148
C    6.391091   2.316653  -0.238238
C    7.101307   3.752429   2.128569
C    9.109652   2.413237   0.633266
H    1.908302   1.506527   1.736847
H    1.189431  -1.019564   0.119204
H    5.423117  -1.208461   1.585216
H    6.233243  -3.547432  -6.050941
H    5.886516   3.445046  -1.879937
H    6.584770   2.971386   3.950208
H    7.046562   5.798587   2.048992
H   10.416076   3.549491  -0.461755
H    9.943758   0.722801   1.435304

