%chk=mol_5603.chk
# wB97XD/Def2SVP opt pop=full gfinput

C 6 H 11 N 1

1 2
C    1.913461   0.058997   0.520487
C    4.771729   0.008447   0.083677
C    5.591888  -2.459422  -1.230287
C    5.256254  -1.915653  -3.996034
N    7.196908  -0.665108  -5.478316
C    5.253817   0.900492  -4.338131
C    5.586786   2.092361  -1.788342
H    1.340628   1.847472   1.392558
H    1.341384  -1.477331   1.785451
H    0.853192  -0.149969  -1.246558
H    5.717442   0.231151   1.911855
H    4.468522  -4.085361  -0.620076
H    7.582602  -2.865921  -0.817325
H    3.834670  -3.025281  -4.955051
H    8.865102  -0.547000  -4.517013
H    3.830399   1.745597  -5.534516
H    7.577084   2.588339  -1.479826
H    4.461114   3.813543  -1.579773

