%chk=mol_4140.chk
# wB97XD/Def2SVP opt pop=full gfinput

C 4 H 6 N 2 O 1

1 2
C    1.875043  -0.022091  -0.010866
C    4.668644   0.136986  -0.000548
N    6.046972   2.208995   0.009468
C    8.490880   1.409679   0.015874
O   10.500604   2.943645   0.026721
C    8.644250  -1.176959   0.009808
N    6.182333  -1.970984  -0.000794
H    1.037327   1.868750   0.004309
H    1.197519  -1.039992   1.656912
H    1.208650  -1.008301  -1.701982
H   12.036932   1.950934   0.029461
H   10.207091  -2.487824   0.011867
H    5.570497  -3.780699  -0.007597

