%chk=mol_1007.chk
# wB97XD/Def2SVP opt pop=full gfinput

C 4 H 9 N 1 O 1

1 2
C    2.136298   0.224745   0.164954
C    4.957772  -0.232587  -0.222931
N    5.387363  -1.530130  -2.624470
C    6.384761   2.219257  -0.237539
C    7.174534   3.467005   2.201002
O    8.933661   2.079133   0.677883
H    1.792953   1.168985   1.974972
H    1.084930  -1.558400   0.170982
H    1.349000   1.433697  -1.321410
H    5.652719  -1.448116   1.304572
H    4.601578  -0.530673  -4.068391
H    4.493580  -3.234531  -2.601510
H    6.007968   3.408612  -1.857317
H    6.606463   2.630593   3.978951
H    7.362562   5.503771   2.231974

