%chk=mol_2716.chk
# wB97XD/Def2SVP opt pop=full gfinput

C 6 H 10 O 1

1 2
C    5.566491   4.440384   5.091243
C    6.714594   2.829166   3.513247
C    6.173981   2.680350   0.727809
C    8.508454   3.181373  -0.905878
C    9.491962   5.819601  -0.610552
C   11.902270   6.354771   0.807083
O   11.834618   6.266634  -1.900857
H    6.020989   4.456107   7.092085
H    4.147911   5.770128   4.435187
H    8.110591   1.519831   4.265074
H    4.665639   4.003971   0.207057
H    5.465731   0.777792   0.311880
H    7.990783   2.898972  -2.892509
H    9.986446   1.792859  -0.473641
H    8.057622   7.269550  -0.747746
H   12.848663   4.822127   1.777325
H   12.121553   8.188088   1.688565

