%chk=mol_3988.chk
# wB97XD/Def2SVP opt pop=full gfinput

C 5 H 9 N 1 O 1

1 2
C    1.843768   0.038569   0.388603
C    4.663258  -0.085246  -0.159720
C    5.274415  -0.043747  -2.969742
N    6.115418   1.853179   1.250640
C    7.794308   0.007559   2.495591
C    6.129232  -2.080966   1.372489
O    6.024409  -4.358937   1.597556
H    1.450875   0.029631   2.422289
H    0.865854  -1.588409  -0.438171
H    1.001498   1.753269  -0.410297
H    7.316150  -0.091519  -3.317395
H    4.521869   1.660540  -3.873239
H    4.445448  -1.683992  -3.922901
H    5.060328   2.877996   2.500259
H    9.731315   0.001946   1.779234
H    7.789092   0.084905   4.557774

