%chk=mol_2089.chk
# wB97XD/Def2SVP opt pop=full gfinput

C 4 H 3 N 3

1 2
N    1.991771  -0.558320   0.000000
C    4.527236  -0.071885   0.000000
C    5.770317   2.150489   0.000000
C    4.441839   4.451477   0.000000
N    3.354302   6.335175   0.000000
C    8.427272   2.150489   0.000000
N   10.602365   2.150489   0.000000
H    1.349699  -2.369187  -0.000000
H    0.691829   0.858937  -0.000000
H    5.609350  -1.828858   0.000000

