%chk=mol_1813.chk
# wB97XD/Def2SVP opt pop=full gfinput

C 5 H 10 N 2

1 2
C    1.920037   1.317271  -0.276977
N    4.083793   1.371072   1.429597
C    6.215933   1.720104   0.309443
N    8.532926   1.837967   1.493885
C   10.711478   0.774580   0.126725
C   10.416170   3.569107   0.419160
C   12.072308   5.011818   2.175944
H    0.367986   0.296404   0.631981
H    2.333509   0.347861  -2.059613
H    1.270123   3.239161  -0.679357
H    6.330110   1.967526  -1.764948
H   10.278522  -0.105655  -1.665038
H   11.977670  -0.243812   1.365724
H    9.791484   4.684348  -1.178244
H   12.616096   3.894820   3.830909
H   11.098210   6.711325   2.839748
H   13.798686   5.599580   1.200883

