%chk=mol_1393.chk
# wB97XD/Def2SVP opt pop=full gfinput

C 6 H 15 N 1

1 2
C    6.204462  -2.111334  -1.288812
C    5.034552  -0.253148   0.572738
C    6.145503   2.435460   0.395350
N    4.738224   4.092240   2.119139
C    9.037597   2.597353   0.875794
C   10.027964   5.293236   0.465269
C    9.856698   1.654115   3.488775
H    5.194630  -3.914776  -1.213469
H    8.185292  -2.489374  -0.844008
H    6.086279  -1.393560  -3.224081
H    5.222674  -1.006676   2.493739
H    2.998050  -0.168847   0.182963
H    5.794940   3.131805  -1.527050
H    4.882504   3.433311   3.922637
H    2.862954   4.031201   1.685390
H    9.987845   1.411909  -0.535189
H    9.288836   6.609449   1.879711
H    9.500031   5.992170  -1.409622
H   12.094002   5.334262   0.589009
H    9.031417   2.786666   5.009834
H   11.915498   1.760903   3.681394
H    9.319752  -0.319269   3.782646

