%chk=mol_2032.chk
# wB97XD/Def2SVP opt pop=full gfinput

C 6 H 11 N 1

1 2
N    4.700769  -1.163788   2.301403
C    4.223595   0.095148  -0.104143
C    5.362816   2.718862  -0.147096
C    3.856931   4.765190  -0.306362
C    8.140883   2.904320   0.068049
C    9.814898   1.548668  -1.797073
C    9.604250   4.370369  -1.893751
H    3.824333  -2.874500   2.294109
H    3.873334  -0.135928   3.702540
H    2.176662   0.167430  -0.422297
H    5.015503  -1.040748  -1.643174
H    1.817595   4.605640  -0.431765
H    4.650427   6.656976  -0.297745
H    8.813153   2.999298   2.005548
H    8.966845   0.478630  -3.321288
H   11.552765   0.732061  -1.079733
H   11.205831   5.476823  -1.257896
H    8.605132   5.188168  -3.485808

