%chk=mol_4065.chk
# wB97XD/Def2SVP opt pop=full gfinput

C 4 H 7 N 1 O 2

1 2
C    1.871755  -0.022639   0.678695
C    4.557963  -0.119922  -0.328189
C    5.330558   2.351216  -1.547761
O    7.815133   2.131668  -2.603721
C    8.470055  -0.208720  -3.401129
N    7.134453  -2.252818  -3.278958
O    4.678263  -1.990808  -2.269655
H    1.644723   1.480071   2.080475
H    1.370297  -1.827290   1.559062
H    0.513117   0.283175  -0.854345
H    5.864992  -0.654733   1.190679
H    5.368032   3.878682  -0.154315
H    4.051006   2.896327  -3.081236
H   10.393059  -0.198062  -4.187652

