%chk=mol_7074.chk
# wB97XD/Def2SVP opt pop=full gfinput

C 6 H 5 N 1

1 2
C    3.212119  -1.122044   2.045610
C    4.606925  -0.172910   0.157244
C    5.928298   2.333264   0.240184
C    8.667852   1.953693   0.041120
C   10.911581   1.647614  -0.116067
C   13.779562   1.251622  -0.315868
N   15.946019   0.957770  -0.469691
H    2.294864  -2.948370   1.855862
H    2.956817  -0.117390   3.816340
H    4.789247  -1.260032  -1.579868
H    5.483778   3.353300   1.987009
H    5.254762   3.500321  -1.331841

