%chk=mol_5403.chk
# wB97XD/Def2SVP opt pop=full gfinput

C 4 H 9 N 1 O 2

1 2
C    3.904495  -0.015515   4.972304
O    3.164365   2.429697   4.146759
C    4.934623   3.459503   2.374365
C    3.848616   5.946836   1.424910
O    7.325731   3.952098   3.550115
N    9.262530   3.797121   1.735676
C   11.382010   4.300809   2.827352
H    2.434175  -0.745062   6.226761
H    5.677021   0.073945   6.031647
H    4.094904  -1.304932   3.367549
H    5.147293   2.135674   0.790076
H    3.608621   7.279490   2.991569
H    1.989447   5.660580   0.565085
H    5.106550   6.834780   0.044975
H   13.146938   4.283631   1.725755
H   11.534605   4.759955   4.855368

