%chk=mol_6930.chk
# wB97XD/Def2SVP opt pop=full gfinput

C 7 H 10

1 2
C    2.501997   0.492349   0.622173
C    5.189471  -0.127481   0.220758
C    6.334702  -2.116172  -0.860543
C    9.075296  -1.488877  -0.567182
C    9.283374   1.430560  -1.241871
C    7.357120   1.489690   1.059777
C    9.332848  -0.443046   2.236547
H    1.276680  -1.066505   0.036510
H    1.977825   2.168952  -0.466422
H    2.138792   0.872241   2.622827
H    5.510914  -3.766130  -1.720690
H   10.469404  -2.811005  -1.299546
H    8.545682   2.013806  -3.085356
H   11.124043   2.331393  -0.944901
H    6.964888   3.264672   2.022045
H   11.177258   0.320894   2.785305
H    8.641547  -1.670272   3.752013

