%chk=mol_0604.chk
# wB97XD/Def2SVP opt pop=full gfinput

C 6 H 10

1 2
C    1.883320   0.385882  -0.613292
C    4.648065   0.105825   0.005442
C    5.671522  -2.203496   0.274350
C    6.124035   2.465129   0.154202
C    5.383943   4.471187   2.036917
C    7.751052   2.966605   2.440279
H    1.640604   1.538502  -2.314820
H    0.878458   1.300680   0.947603
H    0.971527  -1.439858  -0.961795
H    4.548458  -3.910996   0.112514
H    7.672968  -2.434005   0.664050
H    6.844229   3.111283  -1.658367
H    3.819533   4.126633   3.312463
H    5.576223   6.429170   1.467051
H    9.548428   3.902247   2.142628
H    7.762239   1.612825   3.977155

