%chk=mol_4611.chk
# wB97XD/Def2SVP opt pop=full gfinput

C 4 H 7 N 1 O 2

1 2
C    1.913839  -0.707098  -0.052383
C    4.646496   0.161061   0.048585
C    4.861774   2.985295   0.397447
O    3.081652   4.453026   0.586514
C    7.479347   4.081450   0.521508
N    9.449841   2.646070   0.353662
O   11.615693   4.153543   0.525911
H    1.817085  -2.758377  -0.303093
H    0.908013   0.184683  -1.626185
H    0.914117  -0.221249   1.693440
H    5.593892  -0.360182  -1.716967
H    5.602036  -0.774334   1.628793
H    7.561928   6.151531   0.760974
H   12.982229   2.921838   0.384389

