%chk=mol_3200.chk
# wB97XD/Def2SVP opt pop=full gfinput

C 6 H 12 O 1

1 2
C    1.815384  -0.207870  -0.055917
C    4.692341  -0.152520   0.002816
O    5.627850  -1.612636  -2.059140
C    5.707748   2.554078  -0.153654
C    8.598235   2.633919  -0.004403
C    9.557517   5.304499  -0.117220
C   10.902284   6.407456   1.719689
H    1.011759   0.832273   1.538823
H    1.132040  -2.159636   0.014948
H    1.092507   0.611175  -1.813910
H    5.352196  -1.052502   1.747127
H    5.006413  -0.856858  -3.615424
H    4.897452   3.685268   1.383261
H    5.105265   3.417022  -1.940692
H    9.425085   1.582211  -1.586444
H    9.231463   1.702927   1.736564
H    9.139869   6.373083  -1.823642
H   11.386148   5.414727   3.449260
H   11.560494   8.340647   1.522779

