%chk=mol_0097.chk
# wB97XD/Def2SVP opt pop=full gfinput

C 3 H 9 N 1 O 1

1 2
C    3.375448  -0.769515   1.191529
N    5.975635   0.077838   0.853136
C    6.037259   2.685584  -0.118448
C    8.790666   3.548395  -0.391098
O   10.076776   3.245019   1.956566
H    3.371045  -2.710963   1.906261
H    2.332036  -0.747141  -0.595736
H    2.378674   0.404836   2.573448
H    6.850106  -1.088501  -0.410505
H    5.083344   3.931670   1.234520
H    5.077033   2.824422  -1.947382
H    8.884283   5.539808  -0.938230
H    9.781695   2.426767  -1.819882
H    9.311550   1.743197   2.721073

