%chk=mol_6111.chk
# wB97XD/Def2SVP opt pop=full gfinput

C 4 H 8 N 2 O 1

1 2
O    5.795714  -1.893884  -1.098498
C    4.513535   0.097189   0.184588
C    6.054947   2.527792   0.011017
C    6.334816   3.503892  -2.678989
C    6.035842   6.265066  -2.196410
N    5.230819   6.874635   0.028459
N    4.812584   4.666376   1.256101
H    4.747427  -3.395687  -0.929821
H    4.264715  -0.463474   2.161469
H    2.642234   0.324957  -0.672497
H    7.943899   2.236434   0.816305
H    4.848036   2.889032  -3.976740
H    8.195497   3.118086  -3.486753
H    6.459216   7.653391  -3.681753
H    5.228400   4.786506   3.137191

