%chk=mol_3187.chk
# wB97XD/Def2SVP opt pop=full gfinput

C 7 H 12

1 2
C    1.889726   0.000000   0.000000
C    4.618491   0.000000   0.000000
C    6.867567   0.000000   0.000000
C    9.596332   0.000000   0.000000
C   10.570787  -1.343520   2.382264
C   10.580444  -1.388873  -2.350630
C   10.575758   2.732884  -0.021921
H    1.145231   1.929184   0.022072
H    1.145231  -0.983716   1.659690
H    1.145231  -0.945468  -1.681762
H    9.911802  -0.398316   4.105430
H   12.641077  -1.374606   2.433948
H    9.908571  -3.305811   2.467019
H    9.923160  -0.482183  -4.094658
H    9.926165  -3.355077  -2.395681
H   12.651414  -1.413572  -2.395700
H    9.928791   3.753204  -1.705875
H   12.646085   2.788423  -0.008390
H    9.906379   3.788409   1.631193

