%chk=mol_6372.chk
# wB97XD/Def2SVP opt pop=full gfinput

C 4 H 4 N 2 O 1

1 2
O    1.508209   0.852474   0.609663
N    4.068467   0.200632   0.727280
C    5.410891   2.207899   0.365001
C    8.194306   2.110843   0.382499
C    9.520308   4.230247   0.000000
C   12.177263   4.230247   0.000000
N   14.352357   4.230247   0.000000
H    0.672931  -0.765906   0.901740
H    4.531469   4.071642   0.028648
H    9.059422   0.281380   0.712654
H    8.596666   6.030267  -0.324844

