%chk=mol_5442.chk
# wB97XD/Def2SVP opt pop=full gfinput

C 5 H 9 N 1 O 1

1 2
C   13.451241   4.002780  -0.056011
O   11.650181   5.536387  -1.333693
N    9.333811   5.344939  -0.058733
C    7.661290   6.648019  -1.276208
C    4.963668   6.775821  -0.374128
C    4.393009   9.439466   0.405535
C    2.653667  10.906592  -0.704509
H   15.248124   4.124101  -1.066750
H   12.829105   2.030567  -0.038550
H   13.725856   4.681551   1.878747
H    8.131888   7.689636  -3.022806
H    4.691604   5.500520   1.230873
H    3.743850   6.152967  -1.924856
H    5.464559  10.187211   1.995589
H    1.521910  10.243052  -2.282298
H    2.316445  12.818580  -0.038928

