%chk=mol_3619.chk
# wB97XD/Def2SVP opt pop=full gfinput

C 5 H 6 O 2

1 2
O    2.347531   0.455424   0.920127
C    4.320802  -0.102480  -0.125931
O    4.865251  -2.366976  -1.237638
C    7.391343  -2.351027  -2.257826
C    8.488045   0.194566  -1.755348
C    7.390511   2.561694  -2.889391
C    6.499430   1.620327  -0.355042
H    8.474609  -3.841473  -1.317045
H    7.294872  -2.759170  -4.283102
H   10.406079   0.183984  -1.063349
H    8.557190   4.244363  -2.922291
H    6.120407   2.396248  -4.489328
H    7.028496   2.656804   1.324018

