%chk=mol_6911.chk
# wB97XD/Def2SVP opt pop=full gfinput

C 6 H 13 N 1

1 2
C    3.973414  -0.963855  -2.512202
C    4.560136   0.119639   0.082959
C    6.180595   2.483327  -0.160419
C    4.888041   4.919619  -1.118737
C    6.256108   6.252178   1.080867
C    8.774414   7.505482   0.486812
N    6.538944   3.756681   2.309642
H    2.841638  -2.685206  -2.333774
H    5.713323  -1.434793  -3.527816
H    2.913806   0.388925  -3.663461
H    5.562315  -1.311035   1.197425
H    2.781601   0.528859   1.072968
H    7.981107   2.095952  -1.117527
H    2.823138   4.934264  -0.940932
H    5.401404   5.522649  -3.027303
H    5.033909   7.546035   2.142080
H   10.053135   6.257923  -0.558849
H    9.729651   8.088141   2.228176
H    8.475251   9.202191  -0.660667
H    8.241908   3.432158   3.146016

