%chk=mol_2700.chk
# wB97XD/Def2SVP opt pop=full gfinput

C 6 H 12 O 1

1 2
C    1.749074  -0.283988  -0.534112
C    4.594245  -0.358859  -0.146813
C    5.688340   2.294581   0.181811
C    8.517600   2.259659   0.482277
C    9.587356   1.037157   2.796927
C   10.187136   2.604137  -1.814307
O    9.678365   4.644909  -0.103009
H    1.001801  -2.203704  -0.730077
H    1.259843   0.772369  -2.244447
H    0.804551   0.610022   1.074725
H    5.485629  -1.294727  -1.765344
H    5.013236  -1.512839   1.520171
H    4.840949   3.203672   1.842559
H    5.160710   3.456423  -1.455467
H   11.573627   1.546892   3.089003
H    9.486160  -1.022474   2.637170
H    8.535118   1.612579   4.484150
H    9.323682   2.689836  -3.667297
H   12.072138   1.808166  -1.797451

