%chk=mol_4048.chk
# wB97XD/Def2SVP opt pop=full gfinput

C 5 H 11 N 1 O 1

1 2
C    1.849494   0.150006   0.348314
C    4.671195  -0.191467  -0.141673
C    5.276645  -0.116766  -2.963204
O    6.099507   1.794484   1.143001
C    7.740091  -0.083431   2.299570
C    5.895379  -2.213039   1.612844
N    7.193394  -4.231796   0.219378
H    1.442863   0.304510   2.372117
H    0.779795  -1.459795  -0.392402
H    1.136765   1.866860  -0.561910
H    7.317019  -0.123588  -3.311197
H    4.519129   1.602696  -3.833158
H    4.448888  -1.740816  -3.941477
H    9.597862  -0.089516   1.386870
H    7.969523   0.254622   4.325337
H    4.732706  -2.869228   3.190840
H    8.425495  -3.635266  -1.135801
H    5.995062  -5.467318  -0.646910

