%chk=mol_4617.chk
# wB97XD/Def2SVP opt pop=full gfinput

C 6 H 11 N 1

1 2
C   -3.190651   1.533437   1.060231
C   -2.167516  -0.596908  -0.521961
C   -0.625802  -2.696526   0.589708
C    2.046592  -2.603740  -0.491820
C    3.228824   0.038191  -0.297651
C    1.402781   2.065187   0.675709
N   -1.044452   1.947023  -0.631603
H   -4.953652   2.396210   0.474132
H   -2.883665   1.521985   3.083334
H   -3.188327  -1.156909  -2.206444
H   -0.556487  -2.551451   2.656445
H   -1.502011  -4.520603   0.150743
H    3.249441  -3.999832   0.453308
H    1.982606  -3.147547  -2.493210
H    4.876438  -0.036585   0.956825
H    3.950132   0.586684  -2.162527
H    1.224070   1.895565   2.736418
H    2.231086   3.933522   0.337675

