%chk=mol_0489.chk
# wB97XD/Def2SVP opt pop=full gfinput

C 4 H 12 N 2

1 2
C    1.893940  -0.053101   0.037095
N    4.645381  -0.008088   0.059961
C    5.599731   2.585996  -0.015515
C    8.492467   2.575356  -0.021297
C    9.526147   5.272223  -0.019729
N   12.282710   5.255574  -0.065328
H    1.235106  -2.012464   0.114744
H    1.133855   0.806403  -1.685182
H    1.115921   0.929292   1.684011
H    5.312908  -0.984358  -1.462062
H    4.921735   3.631260   1.640263
H    4.910227   3.554972  -1.712999
H    9.186204   1.560120  -1.692306
H    9.191949   1.557607   1.646197
H    8.876838   6.284435   1.665472
H    8.834772   6.300611  -1.677415
H   12.949915   4.319309   1.481337
H   12.937198   7.061434   0.074455

