%chk=mol_3547.chk
# wB97XD/Def2SVP opt pop=full gfinput

C 6 H 6 O 1

1 2
O    1.964427  -0.185836   0.207549
C    4.217302   0.231114   0.014192
C    5.493037   2.674775   0.472734
C    7.965800   2.287929   0.051457
C    8.670158  -0.278224  -0.737541
C    8.233745  -2.495251   0.979275
C    6.140136  -1.668080  -0.763374
H    4.529220   4.365759   1.055110
H    9.374477   3.760234   0.262105
H    9.894322  -0.473036  -2.365011
H    9.198110  -4.250258   0.539536
H    8.014461  -2.169462   2.991153
H    5.684466  -2.827748  -2.385496

