%chk=mol_6614.chk
# wB97XD/Def2SVP opt pop=full gfinput

C 5 H 6 O 1 S 1

1 2
C    5.708863  -2.175528   0.978840
O    4.322673   0.079860   0.529804
C    5.756899   2.190759   0.281116
C    4.574649   4.465120  -0.157339
S    6.670733   6.911692  -0.418404
C    9.184428   4.934566   0.055577
C    8.436512   2.462502   0.405025
H    4.354609  -3.729469   1.143398
H    6.761157  -2.064942   2.757772
H    6.971974  -2.604647  -0.603730
H    2.568761   4.807218  -0.337562
H   11.087723   5.679269   0.055180
H    9.776744   0.953499   0.730625

