%chk=mol_0010.chk
# wB97XD/Def2SVP opt pop=full gfinput

C 3 H 4

1 2
C    1.889726   0.000000   0.000000
C    4.618491   0.000000   0.000000
C    6.867567   0.000000   0.000000
H    1.130774   1.924081   0.066707
H    1.170780  -0.959981   1.687714
H    1.063991  -0.939326  -1.645177
H    8.882733  -0.000000  -0.000000

