%chk=mol_4532.chk
# wB97XD/Def2SVP opt pop=full gfinput

C 4 H 10 N 2 O 1

1 2
C    1.799945  -0.264467   0.016686
C    4.658477  -0.003250  -0.275012
C    5.662678  -1.738057  -2.351859
N    5.363081   2.622165  -0.803341
O    4.387245   3.585510  -3.068103
C    5.588846   4.401928   1.067336
N    5.353008   6.812500   0.819272
H    1.094794   0.964724   1.525255
H    1.287376  -2.212945   0.491121
H    0.803965   0.247989  -1.725169
H    5.551052  -0.586647   1.503372
H    4.814323  -1.306254  -4.189844
H    5.253552  -3.718868  -1.912611
H    7.714315  -1.536687  -2.545310
H    5.913369   4.042238  -3.999568
H    6.049826   3.593333   2.932477
H    4.857484   7.126289  -1.029050

