%chk=mol_5214.chk
# wB97XD/Def2SVP opt pop=full gfinput

C 4 H 10 N 2 O 1

1 2
C    2.243785   0.550931   2.914014
N    4.395843   1.982285   3.804378
C    6.494648   2.252875   2.324703
O    8.201714   3.992746   3.130142
C    8.451460   4.490499   5.781787
N    6.851902   1.033964   0.250143
C    9.194973   1.578375  -1.091317
H    0.840323   0.398071   4.425285
H    2.792316  -1.366574   2.363934
H    1.355652   1.493677   1.300699
H    3.912961   3.559280   4.766191
H   10.323819   5.308127   6.098543
H    8.306631   2.747605   6.887636
H    7.028723   5.867260   6.377089
H    9.309113   0.363262  -2.761532
H   10.855721   1.175939   0.076685
H    9.253989   3.540648  -1.745691

