%chk=mol_7138.chk
# wB97XD/Def2SVP opt pop=full gfinput

C 6 H 9 N 1

1 2
C    1.983835  -0.049133   0.809445
C    4.762110   0.000000   0.000000
C    5.155891  -1.186861  -2.628722
C    4.444296  -3.939512  -2.749098
C    2.640590  -4.867424  -4.262750
C    5.672996   2.572238   0.000000
N    6.399047   4.622572   0.000000
H    1.729685   0.883995   2.642442
H    1.284900  -1.987198   1.002500
H    0.779531   0.934281  -0.560493
H    5.847153  -1.091544   1.390971
H    7.155618  -1.036099  -3.162287
H    4.103295  -0.106354  -4.055560
H    5.492659  -5.234050  -1.541979
H    1.551919  -3.664519  -5.517736
H    2.215477  -6.875579  -4.281401

