%chk=mol_2358.chk
# wB97XD/Def2SVP opt pop=full gfinput

C 6 H 12 O 1

1 2
C    1.760185   0.010507   0.132734
C    4.621836   0.051797   0.036528
C    5.960914   1.984080   1.779347
C    7.999778  -0.052931   2.314008
C   10.375145   0.025455   0.690525
O   11.935246   2.065811   1.488518
C    6.010822  -2.052073   1.522496
H    1.021454  -1.607004  -0.923150
H    0.980522   1.730366  -0.710518
H    1.063311  -0.121831   2.075694
H    5.284317   0.185023  -1.928598
H    4.874057   2.508498   3.463830
H    6.602873   3.713803   0.848959
H    8.508058  -0.189010   4.319139
H    9.957647   0.260234  -1.320767
H   11.461680  -1.719178   0.921223
H   11.027459   3.624892   1.144834
H    6.701555  -3.633358   0.384748
H    4.938667  -2.813103   3.124058

