%chk=mol_7031.chk
# wB97XD/Def2SVP opt pop=full gfinput

C 6 H 13 N 1

1 2
C    2.069817   0.053876   0.336768
C    4.923606  -0.057164  -0.090008
C    5.512671  -1.404067  -2.575356
C    6.006514   2.618291  -0.149817
C    6.072351   4.094337   2.373118
N    8.564371   5.124597   1.620327
C    8.914632   2.890072  -0.031729
H    1.626997   0.964875   2.140738
H    1.254986  -1.847831   0.369971
H    1.127203   1.134138  -1.156304
H    5.778027  -1.137313   1.460796
H    4.714791  -0.384994  -4.190789
H    4.737921  -3.322101  -2.575923
H    7.555314  -1.545191  -2.873914
H    5.184294   3.751787  -1.687979
H    6.158296   2.922424   4.080467
H    4.587990   5.511953   2.618575
H    8.426157   6.775216   0.630923
H    9.849026   3.284835  -1.832978
H    9.910990   1.333447   0.905651

