%chk=mol_3261.chk
# wB97XD/Def2SVP opt pop=full gfinput

C 5 H 10 O 2

1 2
C    7.312257   6.834100  -5.905621
C    8.192266   6.623226  -3.186059
O    9.773210   4.446885  -2.974353
C   10.599360   4.005558  -0.450908
C   11.743325   1.368426  -0.351716
C   12.609122   5.899819   0.343401
O   12.382222   7.323690   2.160675
H    6.135941   8.511308  -6.171165
H    6.221375   5.162070  -6.446064
H    8.930392   6.939434  -7.189652
H    6.554666   6.432873  -1.932774
H    9.254499   8.322033  -2.665931
H    8.999254   4.106262   0.861639
H   13.306336   1.184424  -1.697900
H   10.332361  -0.052251  -0.874905
H   12.462744   0.927950   1.536631
H   14.320798   5.946118  -0.847410

