%chk=mol_2340.chk
# wB97XD/Def2SVP opt pop=full gfinput

C 6 H 10 O 1

1 2
C    1.817331  -0.159833   0.627389
C    4.609080  -0.062890  -0.102839
C    5.168968   2.431019  -1.471171
C    7.637026   2.408834  -2.952074
C    8.311129  -0.153257  -3.897220
C    7.047601  -2.224642  -3.199401
O    5.072573  -2.301516  -1.562029
H    1.270973   1.461590   1.782881
H    1.393975  -1.900120   1.667532
H    0.630753  -0.194169  -1.070076
H    5.764855  -0.191014   1.617171
H    5.198466   3.984110  -0.099740
H    3.632318   2.853543  -2.789463
H    9.192894   3.117198  -1.779102
H    7.458919   3.702578  -4.558605
H    9.855866  -0.313884  -5.233502
H    7.461149  -4.089481  -3.931462

