%chk=mol_1020.chk
# wB97XD/Def2SVP opt pop=full gfinput

C 4 H 5 N 1 O 1

1 2
C    6.492929  -2.607406  -3.418231
C    5.410097  -1.421811  -1.465879
O    6.414921   0.324655   0.145679
C    8.990183   1.053239  -0.249349
C    9.754842   2.929453   1.656213
N   10.411220   4.411698   3.136605
H    5.403917  -3.959827  -4.514594
H    8.431826  -2.307431  -3.998755
H    3.457500  -1.775738  -0.940687
H    9.197222   1.881166  -2.137337
H   10.217504  -0.608756  -0.093334

