%chk=mol_6543.chk
# wB97XD/Def2SVP opt pop=full gfinput

C 4 H 8 N 2 S 1

1 2
C    1.003407  -1.158005  -0.233948
C    3.806570  -0.809842  -0.488834
C    5.283863  -2.794735  -1.053220
N    4.934547   1.533758  -0.277563
C    4.060133   3.872087   0.288334
N    1.697012   4.186783   1.163731
S    5.915070   6.383665  -0.103614
H   -0.031313   0.201067  -1.401081
H    0.413774  -0.979993   1.740306
H    0.407198  -3.041004  -0.862906
H    4.500288  -4.677186  -1.288132
H    7.313221  -2.621598  -1.295936
H    6.794945   1.594475  -0.752848
H    0.940687   2.821210   2.254954
H    1.232631   5.970212   1.683576

