%chk=mol_1146.chk
# wB97XD/Def2SVP opt pop=full gfinput

C 4 H 5 N 1 S 1

1 2
C    1.787227   0.036698  -0.010507
C    4.597968   0.065498  -0.002929
N    5.795658   2.283073   0.001984
S    8.885756   1.781048   0.009600
C    8.699808  -1.443146   0.006142
C    6.185962  -2.127491  -0.000945
H    1.000723   1.949423   0.007672
H    1.077163  -0.963345   1.654965
H    1.086366  -0.928196  -1.700432
H   10.363882  -2.625548   0.009468
H    5.520910  -4.061192  -0.004573

