%chk=mol_6836.chk
# wB97XD/Def2SVP opt pop=full gfinput

C 6 H 11 N 1

1 2
C    1.896095   0.005707   0.036415
C    4.764737  -0.016422   0.125837
N    5.760396  -2.013182   1.781124
C    7.353415  -0.513250   3.532635
C    8.664243   1.490635   1.798944
C    5.858132   2.300912   1.423587
C    5.615964   1.744312   4.309105
H    1.181570  -1.708445  -0.876776
H    1.222785   1.638487  -1.042203
H    1.040124   0.119374   1.915880
H    5.518510  -0.208928  -1.796147
H    6.756338  -3.281283   0.726430
H    8.435133  -1.515806   4.966049
H    9.679726   0.782800   0.140444
H    9.879507   2.862066   2.767995
H    5.463897   4.192830   0.718833
H    6.474731   3.148170   5.569665
H    3.744663   1.277871   5.052126

