%chk=mol_6279.chk
# wB97XD/Def2SVP opt pop=full gfinput

C 5 H 7 N 1 O 1

1 2
O    2.218179  -0.056106  -1.347545
C    4.331725   0.187631  -0.436867
N    5.561918   2.423064   0.034242
C    8.089805   2.613397   1.126504
C    8.615110   5.457264   1.275017
C    6.242049   6.584203   0.213218
C    4.606245   4.778777  -0.446221
H    5.478240  -1.465785   0.107110
H    9.436291   1.623142  -0.095110
H    8.097533   1.709409   2.988923
H   10.264198   5.978470   0.141805
H    8.925177   6.064679   3.227010
H    5.909722   8.588352   0.012926
H    2.742767   5.010514  -1.261959

