%chk=mol_1381.chk
# wB97XD/Def2SVP opt pop=full gfinput

C 6 H 15 N 1

1 2
C    5.010250  -2.921479  -0.419028
C    7.486094  -1.454031  -0.730020
C    7.936680  -0.912681  -3.534978
N    7.301637   0.851095   0.798183
C    9.545271   2.482666   0.827530
C    8.869524   4.870807   2.316162
C   11.849925   1.211371   2.020684
H    4.678943  -3.413450   1.565525
H    5.065411  -4.689393  -1.494925
H    3.385520  -1.822698  -1.086706
H    9.009080  -2.664174  -0.021978
H    6.522239   0.398033  -4.288696
H    7.832197  -2.658297  -4.641337
H    9.810986  -0.100892  -3.861448
H    6.835196   0.380288   2.609050
H   10.017551   3.086112  -1.095890
H    8.407070   4.437209   4.288015
H    7.242772   5.836174   1.473174
H   10.453380   6.203744   2.314839
H   11.427911   0.507448   3.921560
H   13.419550   2.552094   2.179327
H   12.518812  -0.376830   0.877475

