%chk=mol_7137.chk
# wB97XD/Def2SVP opt pop=full gfinput

C 6 H 11 N 1

1 2
C    1.764494  -1.069037   1.154698
C    4.382596  -0.802302  -0.049397
C    5.128131  -3.289012  -1.318840
C    4.381935   1.444639  -1.907471
C    6.915491   1.997252  -3.190859
C    8.876081   2.753047  -1.377100
N   10.427849   3.349162   0.050966
H    1.228946   0.668453   2.143290
H    1.742970  -2.610014   2.536126
H    0.318268  -1.467958  -0.271591
H    5.733580  -0.424055   1.476424
H    3.920105  -3.690654  -2.950543
H    4.956903  -4.870070   0.006406
H    7.092275  -3.245529  -1.963236
H    3.759081   3.147207  -0.896562
H    2.970782   1.097666  -3.388373
H    6.638589   3.537416  -4.549742
H    7.551157   0.365076  -4.291436

