%chk=mol_5172.chk
# wB97XD/Def2SVP opt pop=full gfinput

C 4 H 10 N 2 O 1

1 2
C    0.542918   2.269296  -0.480709
N    3.028683   3.463811  -0.362223
C    4.906353   1.937650  -0.502875
N    7.396162   2.615986  -0.446070
C    8.282707   5.103602   0.354229
C    7.579238   7.185986  -1.536461
O    5.073612   8.092185  -1.148160
H   -0.539271   2.774893   1.207289
H    0.603768   0.203486  -0.600460
H   -0.479405   2.976357  -2.133142
H    4.678490  -0.128048  -0.717510
H    8.641453   1.195592  -0.118032
H   10.346610   5.009362   0.482031
H    7.546527   5.533269   2.240894
H    7.748709   6.532178  -3.492290
H    8.841291   8.805084  -1.285392
H    4.008393   6.574168  -0.959792

