%chk=mol_2265.chk
# wB97XD/Def2SVP opt pop=full gfinput

C 6 H 12 O 1

1 2
C    1.574879  -1.074498  -0.360541
C    4.365740  -1.206269  -0.723652
C    5.518983  -0.654790  -3.267242
C    5.856242   1.194760  -1.120759
C    8.421583   1.532984   0.055350
C    8.254191   2.550847   2.750648
O    7.454044   0.630715   4.456447
H    1.139769  -0.506749   1.579981
H    0.724559  -2.928754  -0.696648
H    0.686764   0.284272  -1.643363
H    5.206044  -2.713817   0.382178
H    4.284255  -0.117579  -4.811621
H    7.121641  -1.791649  -3.851130
H    4.838625   2.970272  -1.264983
H    9.479358   2.881814  -1.106567
H    9.461840  -0.258174   0.046941
H    6.945443   4.147061   2.894645
H   10.120239   3.184888   3.376846
H    5.787626   0.084584   3.906291

