%chk=mol_6211.chk
# wB97XD/Def2SVP opt pop=full gfinput

C 5 H 7 N 1 O 1

1 2
O    5.427464  -2.299116  -1.248863
C    4.403874  -0.393762   0.349373
C    5.519795   2.180101  -0.341625
C    8.297297   2.340728   0.258099
C    9.323172   4.058546   1.814685
C   11.962817   4.149801   2.312401
N   14.110868   4.241585   2.734717
H    4.693475  -3.899998  -0.721365
H    4.805290  -0.884619   2.319374
H    2.353503  -0.365473   0.075117
H    4.475722   3.661193   0.662066
H    5.287491   2.514375  -2.373250
H    9.496460   0.953310  -0.683174
H    8.160990   5.459532   2.755429

