%chk=mol_4102.chk
# wB97XD/Def2SVP opt pop=full gfinput

C 5 H 11 N 1 O 1

1 2
C    1.770560  -0.110832   0.134246
C    4.622875  -0.019993   0.067331
N    5.627491  -0.034091  -2.543609
C    6.001279   2.035500   1.617133
C    7.986947   0.044163   2.392885
C    6.098865  -2.054227   1.626809
O    7.127064  -4.131584   0.192979
H    1.068508  -0.140728   2.081817
H    1.049762  -1.806068  -0.812526
H    0.944183   1.543245  -0.797918
H    7.485678   0.474359  -2.685225
H    4.694609   1.178244  -3.721192
H    4.903046   2.733716   3.230997
H    6.731979   3.671813   0.587100
H    9.715384   0.087683   1.253342
H    8.515900   0.071564   4.391213
H    5.035346  -2.768600   3.256981
H    6.845892  -3.592577  -1.553827

