%chk=mol_4899.chk
# wB97XD/Def2SVP opt pop=full gfinput

C 4 H 11 N 1 O 2

1 2
C    5.729480  -2.085936  -1.071890
C    5.104661   0.134870   0.650122
O    6.201250  -0.286407   3.087075
C    6.017644   2.707222  -0.396994
N    5.378085   4.789133   1.383317
C    8.889480   2.810117  -0.868896
O    9.569214   5.316631  -1.620024
H    5.012669  -1.776891  -2.985352
H    4.881522  -3.821971  -0.329946
H    7.767058  -2.430415  -1.157249
H    3.048790   0.215051   0.915516
H    5.589904  -1.910948   3.698156
H    5.044189   3.117330  -2.179005
H    6.090379   4.257005   3.108921
H    3.468573   4.799848   1.651205
H    9.457040   1.527314  -2.385288
H    9.969723   2.343563   0.833596
H    8.466275   6.397573  -0.593280

