%chk=mol_6263.chk
# wB97XD/Def2SVP opt pop=full gfinput

C 4 H 5 N 1 O 2

1 2
O    3.087000  -1.128544   1.835226
C    4.518675  -0.261349  -0.261670
C    5.417221   2.423593   0.097642
N    4.060266   4.409109   0.570168
O    1.488348   3.798935   0.744306
C    8.061515   3.030913  -0.114328
C   10.268280   3.533750  -0.291793
H    1.821583   0.186856   2.127000
H    3.334857  -0.353813  -1.955130
H    6.128552  -1.532020  -0.518352
H    0.717812   5.452086   1.039897
H   12.222276   3.996601  -0.439380

