%chk=mol_0704.chk
# wB97XD/Def2SVP opt pop=full gfinput

C 6 H 10

1 2
C    3.067422  -1.282595   2.034385
C    4.534492  -0.523719   0.118202
C    5.825005   2.004603   0.001814
C    8.704551   1.724659  -0.125648
C    9.993269   4.253169  -0.250880
C   11.446940   5.012215  -2.177777
H    2.174678  -3.129935   2.004376
H    2.719203  -0.090423   3.667354
H    4.813813  -1.783731  -1.483152
H    5.303271   3.163043   1.641832
H    5.139412   3.008954  -1.678190
H    9.225624   0.562118  -1.761754
H    9.390201   0.726203   1.556756
H    9.725267   5.513730   1.352137
H   11.782858   3.819854  -3.813184
H   12.339817   6.859781  -2.154590

