%chk=mol_2561.chk
# wB97XD/Def2SVP opt pop=full gfinput

C 6 H 10 O 1

1 2
C    1.915162  -0.025681  -0.078972
C    4.777643  -0.030443   0.173231
O    5.548293  -2.264251   1.532152
C    6.251724  -1.525576   4.060077
C    8.624370  -2.943400   4.824395
C    6.595012   1.261883   3.925868
C    5.739060   2.115473   1.715115
H    1.296144  -1.657384  -1.192134
H    1.235049   1.697409  -0.998134
H    0.994809  -0.196626   1.769445
H    5.675150  -0.069126  -1.690171
H    4.690792  -2.002637   5.334394
H   10.194317  -2.541228   3.535319
H    8.297504  -4.985891   4.741512
H    9.206841  -2.447913   6.746587
H    7.361050   2.411347   5.426991
H    5.714192   4.065727   1.120948

