%chk=mol_1401.chk
# wB97XD/Def2SVP opt pop=full gfinput

C 6 H 15 N 1

1 2
C    1.996458  -0.416155  -0.529709
C    4.872923  -0.324523  -0.475436
C    5.837100   2.396872  -0.736105
N    8.610613   2.652306  -0.504689
C    9.923991   1.340137  -2.560163
C    9.269220   5.363553  -0.443897
C   12.047704   5.884021   0.123040
H    1.339495  -2.370340  -0.369290
H    1.266948   0.362147  -2.302480
H    1.188657   0.665051   1.037101
H    5.575429  -1.509173  -2.019569
H    5.546819  -1.150371   1.301171
H    4.945205   3.507691   0.772898
H    5.185579   3.197662  -2.536164
H    9.537883  -0.690959  -2.523956
H   11.976895   1.488613  -2.360892
H    9.391353   2.078529  -4.419672
H    8.177412   6.283340   1.060854
H    8.746049   6.291749  -2.223093
H   12.666418   4.885263   1.826212
H   12.331219   7.909789   0.438303
H   13.273720   5.334394  -1.448796

