%chk=mol_6797.chk
# wB97XD/Def2SVP opt pop=full gfinput

C 7 H 8

1 2
C    1.853783  -2.584012   0.180866
C   -0.954860  -2.857134   0.030160
C   -2.809664  -1.144097  -0.060792
C   -2.632974   1.564221   0.002948
C   -0.574477   3.024015   0.002948
C    2.039392   2.293334  -0.061643
C    3.042327  -0.024018   0.029385
H    2.656275  -3.717016  -1.360300
H    2.484480  -3.473411   1.944245
H   -1.555264  -4.828250  -0.010186
H   -4.741890  -1.850288  -0.168186
H   -4.458166   2.517172   0.051627
H   -0.870294   5.062123   0.051249
H    3.345892   3.883501  -0.169754
H    5.101391  -0.110889  -0.012038

