%chk=mol_5541.chk
# wB97XD/Def2SVP opt pop=full gfinput

C 5 H 9 N 1 O 1

1 2
N    1.820657   0.164860  -0.426454
C    4.482997  -0.024566   0.277714
C    5.936707   2.363084  -0.473698
C    6.689593   2.245562  -3.249138
O    8.242513   0.090159  -3.798331
C    7.369554  -2.118610  -2.770546
C    5.611485  -2.298361  -0.961020
H    1.028880   1.673428   0.469125
H    0.881141  -1.386039   0.220512
H    4.596948  -0.244247   2.334813
H    4.837869   4.075516  -0.085756
H    7.658020   2.476184   0.679716
H    7.785672   3.929478  -3.745853
H    5.029828   2.207087  -4.490934
H    8.312131  -3.731963  -3.602649
H    5.035515  -4.152106  -0.299597

