%chk=mol_0349.chk
# wB97XD/Def2SVP opt pop=full gfinput

C 6 H 8

1 2
C   -2.401350   0.049171  -0.911528
C   -0.682645  -1.030751   1.300453
C   -1.177224   1.690814   2.467189
C   -0.566691   2.368394  -0.393101
C    2.029131   1.352364  -0.839945
C    1.952673  -0.917424   0.290583
H   -2.232825  -0.875113  -2.755277
H   -4.409071   0.328604  -0.486680
H   -1.270916  -2.710340   2.329635
H   -3.096543   2.088809   3.136076
H    0.174119   2.352690   3.887866
H   -1.035853   4.231021  -1.128167
H    3.571677   2.238948  -1.829595
H    3.416889  -2.322965   0.443009

