%chk=mol_2608.chk
# wB97XD/Def2SVP opt pop=full gfinput

C 6 H 12 O 1

1 2
C    3.258492  -1.031091  -2.179383
C    4.556376   0.074380   0.135115
C    6.139777   2.410176  -0.505067
C    8.419297   1.863213  -2.183824
C    4.642150   4.811337  -1.215736
C    5.818788   5.958514   1.147650
O    6.997297   3.590877   1.828896
H    2.062466  -2.627003  -1.629227
H    4.633703  -1.722410  -3.559394
H    2.063411   0.371482  -3.118634
H    5.753045  -1.377289   1.003596
H    3.108543   0.562212   1.536385
H    9.639833   3.523867  -2.360816
H    7.831271   1.323696  -4.093695
H    9.563601   0.326148  -1.402347
H    2.583369   4.645835  -1.134365
H    5.187809   5.725738  -2.986353
H    7.229147   7.430857   0.810050
H    4.476326   6.583957   2.588377

