%chk=mol_3700.chk
# wB97XD/Def2SVP opt pop=full gfinput

C 5 H 4 O 2

1 2
O    4.284878  -1.492014  -1.861418
C    4.323277   0.018028  -0.110606
C    2.659733  -0.282627   2.032930
C    1.277020  -0.539951   3.815508
C    6.135789   2.136052  -0.044522
C    6.238307   3.991631  -2.204309
O    5.038823   4.617376   0.140048
H    0.042765  -0.774410   5.389064
H    7.873241   1.780783   0.974966
H    5.041203   3.669111  -3.834028
H    8.028010   4.889118  -2.624811

