%chk=mol_0773.chk
# wB97XD/Def2SVP opt pop=full gfinput

C 5 H 8 O 1

1 2
C    2.668312   0.282042  -2.802861
C    4.921640   0.432218  -1.682310
O    6.483972   2.467756  -2.033194
C    8.803478   2.245354  -0.622003
C   10.969860   0.952082  -1.933643
C   10.974849   3.772611  -1.640887
H    1.454125  -1.342575  -2.516737
H    2.004848   1.784865  -4.029368
H    5.645273  -1.032603  -0.454952
H    8.678624   2.107441   1.422907
H   10.642220   0.183814  -3.803527
H   12.265229  -0.139311  -0.785351
H   12.275283   4.600670  -0.294533
H   10.644563   4.914309  -3.308892

