%chk=mol_3680.chk
# wB97XD/Def2SVP opt pop=full gfinput

C 6 H 10 O 1

1 2
O    5.284883   3.416247  -3.028513
C    4.332329   2.971557  -0.964592
C    5.689852   1.723714   1.204644
C    8.435095   1.071437   0.667017
C   10.351522   3.293774   0.591428
C   12.261582   1.510099   1.879748
C    9.975203   0.047999   2.942360
H    2.342694   3.475830  -0.587402
H    4.638522  -0.001247   1.663450
H    5.540752   2.995669   2.833682
H    8.608931  -0.172494  -0.987798
H    9.825291   4.924778   1.757748
H   10.882045   3.958674  -1.290532
H   13.406945   0.413472   0.549079
H   13.502452   2.381130   3.282190
H   10.189933  -2.004622   3.027606
H    9.341805   0.734499   4.792875

