%chk=mol_1116.chk
# wB97XD/Def2SVP opt pop=full gfinput

C 4 H 9 N 1 O 1

1 2
O    4.179942  -0.733119  -2.575243
C    4.480635   0.127727  -0.041650
C    5.952448   2.597769  -0.067633
C    4.536098   4.971095  -1.019167
C    5.864312   6.319792   1.179076
N    6.062185   3.836239   2.461595
H    3.177820  -2.272056  -2.491906
H    5.510177  -1.322638   1.014008
H    2.604232   0.359709   0.798466
H    7.830987   2.379052  -0.927156
H    2.474086   4.891084  -0.834201
H    5.026709   5.624864  -2.915299
H    7.698102   7.148437   0.685215
H    4.734161   7.726750   2.183730
H    7.714713   3.565781   3.412449

