%chk=mol_2506.chk
# wB97XD/Def2SVP opt pop=full gfinput

C 5 H 8 O 2

1 2
C    1.873229   0.016271  -0.085189
C    4.733424  -0.039250   0.111532
C    5.796999   2.034234   1.765458
O    8.185443   1.108986   2.613151
C    8.184782  -1.469035   2.488788
O    9.898820  -2.801462   3.265107
C    5.763400  -2.399631   1.357863
H    1.191718  -1.543698  -1.262072
H    1.232272   1.791196  -0.935018
H    0.982034  -0.155921   1.775908
H    5.555455   0.124571  -1.787057
H    4.624273   2.440543   3.422880
H    6.078209   3.788504   0.706399
H    6.129743  -3.884521  -0.031294
H    4.543072  -3.104385   2.869965

