%chk=mol_5407.chk
# wB97XD/Def2SVP opt pop=full gfinput

C 4 H 7 N 1 O 2

1 2
C    5.824079  -1.278437  -0.626501
O    4.592904   1.112009  -0.600158
C    5.997896   3.242978  -0.109491
N    4.481277   5.346016   0.011546
C    8.521285   3.259626   0.179467
C    9.950618   5.563410   0.823637
O   12.268159   5.570346   0.827473
H    4.391270  -2.726818  -0.974985
H    6.703161  -1.679173   1.202641
H    7.211743  -1.377497  -2.156914
H    2.735379   4.905918  -0.680396
H    5.204287   6.871819  -0.901683
H    9.686378   1.595004   0.014249
H    8.845752   7.260120   1.308012

