%chk=mol_3606.chk
# wB97XD/Def2SVP opt pop=full gfinput

C 5 H 6 O 2

1 2
O    1.596006   0.163877   0.095998
C    4.322541  -0.017574   0.016119
C    5.821736   1.823586   1.685182
O    7.453175  -0.209344   2.554891
C    5.597293  -2.047896   1.686505
C    6.816488  -4.105638   0.365095
C    7.809217  -5.830145  -0.723746
H    1.004333  -1.259861  -0.907787
H    4.978389   0.003779  -1.950991
H    4.780629   2.676117   3.256527
H    6.877148   3.278448   0.667149
H    4.429613  -2.684488   3.276426
H    8.702415  -7.366663  -1.677094

