%chk=mol_5335.chk
# wB97XD/Def2SVP opt pop=full gfinput

C 5 H 13 N 1 O 1

1 2
C    2.431322   0.081617   0.127160
O    5.028788   0.724427   0.308063
C    5.662319   3.365923   0.046355
C    4.811243   4.429197  -2.517304
C    4.514064   4.920866   2.211471
C    8.595287   3.502872   0.279887
N    9.901958   2.036274  -1.682593
H    2.270865  -1.967451   0.352037
H    1.658650   0.571756  -1.724110
H    1.329668   0.966992   1.632308
H    5.360700   3.179067  -4.072360
H    5.614509   6.306375  -2.857417
H    2.751271   4.614900  -2.610203
H    4.944412   4.060454   4.044959
H    2.452014   5.021852   2.067493
H    5.230629   6.862994   2.208901
H    9.163396   2.728235   2.117136
H    9.248962   5.465220   0.190579
H    9.047971   0.301185  -1.744690
H   11.717190   1.719500  -1.129603

