%chk=mol_0748.chk
# wB97XD/Def2SVP opt pop=full gfinput

C 6 H 6

1 2
C    1.889726   0.000000   0.000000
C    4.138803   0.000000   0.000000
C    6.867567   0.000000   0.000000
C    7.930103   2.686454  -0.011962
C   10.711346   2.674340  -0.013001
C   12.980510   2.672167  -0.014003
H   -0.124552  -0.004157   0.000019
H    7.569997  -1.035381  -1.653529
H    7.570073  -1.020528   1.662694
H    7.246722   3.727409   1.646046
H    7.245588   3.713010  -1.678606
H   14.996735   2.674586  -0.014967

