%chk=mol_5199.chk
# wB97XD/Def2SVP opt pop=full gfinput

C 5 H 9 N 1 O 1

1 2
C    4.573836   6.426448   2.005548
N    7.118712   5.744390   1.334543
C    7.615029   3.526361   0.084017
O    5.983156   2.016999  -0.565671
C   10.359044   2.964527  -0.302829
C   11.048624   0.216808  -0.262464
C   12.048157   4.802342  -0.766549
H    4.559985   8.389269   2.644369
H    3.925056   5.186580   3.525303
H    3.333099   6.209470   0.366701
H    8.565769   6.699363   2.139435
H   10.060260  -0.805685  -1.765136
H   10.539645  -0.627654   1.556303
H   13.078756  -0.072358  -0.541898
H   11.521301   6.778316  -0.906086
H   14.027418   4.357935  -1.094265

