10
scf done:  -304.492417
O          2.90731       -1.06465       -0.91683
C          2.42823        0.03993       -1.08600
O          3.02767        1.20327       -0.75376
C          4.32674        1.15343       -0.11825
C          4.80750        2.52784        0.08500
C          5.18690        3.63853        0.21292
H          1.44441       -0.05470       -1.57039
H          5.02883        0.61511       -0.76148
H          4.24280        0.64646        0.84741
H          5.51422        4.64938        0.29938
