%chk=mol_6502.chk
# wB97XD/Def2SVP opt pop=full gfinput

C 6 H 6 S 1

1 2
C    5.039257  -2.165758   0.715942
C    4.169511   0.179278   0.308536
C    5.658842   2.430793   0.124949
C    4.568715   4.764566  -0.293909
S    6.752332   7.148078  -0.435601
C    9.183445   5.081625   0.062172
C    8.345163   2.629800   0.330116
H    3.737141  -3.746949   0.822106
H    7.030046  -2.583407   0.952705
H    2.132669   0.390833   0.097170
H    2.587999   5.210353  -0.527536
H   11.109719   5.759091   0.134945
H    9.623280   1.065976   0.658003

