%chk=mol_2115.chk
# wB97XD/Def2SVP opt pop=full gfinput

C 5 H 6 N 2

1 2
N    1.725396   0.522963  -2.218425
C    4.156623   0.497187  -2.204460
N    5.583611   2.351972  -1.165829
C    8.160953   2.552850  -1.041957
C    9.491301   4.435943   0.000000
C   12.148255   4.435943   0.000000
C   14.397332   4.435943   0.000000
H    1.070813  -1.072117  -3.106237
H    5.243385  -1.069472  -3.055612
H    4.566183   3.781626  -0.390493
H    9.138206   0.964837  -1.914198
H    8.534267   6.026280   0.872109
H   16.410477   4.437039   0.000605

