%chk=mol_2839.chk
# wB97XD/Def2SVP opt pop=full gfinput

C 6 H 10 O 1

1 2
C    4.804837  -1.849815   2.891923
C    6.826126  -0.533356   1.322204
C    6.334456   2.305428   0.979917
C    6.467644   3.741525   3.439415
C    4.573667   5.136805   4.375566
C    8.266286   3.500245  -0.784312
O   10.175230   2.441356  -1.575408
H    5.177056  -3.883463   2.966360
H    2.928225  -1.572384   2.067398
H    4.775810  -1.145552   4.835885
H    6.904965  -1.441861  -0.540783
H    8.678926  -0.849470   2.200246
H    4.486323   2.561562   0.075476
H    8.225751   3.610076   4.504540
H    2.774590   5.321412   3.405400
H    4.781763   6.119179   6.166120
H    7.842609   5.460231  -1.360149

