%chk=mol_3711.chk
# wB97XD/Def2SVP opt pop=full gfinput

C 6 H 4 O 1

1 2
O    2.311910  -0.646438   1.351532
C    4.202826  -0.124401   0.107280
C    5.609142   2.382982   0.146529
C    4.958793   3.931084   2.370095
C    4.428403   5.206026   4.175237
C    8.356633   1.918167  -0.053045
C   10.590837   1.553355  -0.222345
H    4.892236  -1.491674  -1.312226
H    5.003598   3.389091  -1.563068
H    3.947279   6.321134   5.780351
H   12.577809   1.244366  -0.358330

