%chk=mol_1602.chk
# wB97XD/Def2SVP opt pop=full gfinput

C 5 H 8 N 2

1 2
C    2.216044  -0.157206   1.360206
C    4.762110   0.000000   0.000000
N    4.528256  -0.908807  -2.619973
N    3.941213  -3.391699  -2.924030
C    3.572773  -4.011983  -5.255517
C    5.672996   2.572238   0.000000
C    6.423746   4.692322   0.000000
H    2.372835   0.556392   3.299027
H    1.537765  -2.109823   1.471454
H    0.765887   0.970696   0.401132
H    6.125491  -1.199598   1.000289
H    6.175852  -0.474227  -3.534071
H    3.081388  -5.978395  -5.727552
H    3.708134  -2.669673  -6.847044
H    7.086624   6.593802   0.000454

