%chk=mol_1627.chk
# wB97XD/Def2SVP opt pop=full gfinput

C 5 H 12 N 2

1 2
C    2.372778  -0.140955  -0.286123
N    5.114374   0.119034  -0.263031
C    6.361650  -0.943654  -2.468568
C    6.217652   1.908699  -2.108311
C    4.558001   3.419063  -3.873315
C    8.561839   3.298347  -1.214659
N   10.429134   3.412127  -3.247475
H    1.483794   1.582986   0.434278
H    1.838533  -1.682707   0.987193
H    1.550823  -0.579409  -2.134578
H    5.229345  -1.816348  -3.934674
H    8.140223  -1.891143  -2.106874
H    3.141273   2.259848  -4.837132
H    5.690665   4.317098  -5.353821
H    3.576855   4.912891  -2.830186
H    9.411970   2.365484   0.428212
H    8.056394   5.220198  -0.634305
H   11.023774   1.622406  -3.636419
H   11.981771   4.349847  -2.599243

