%chk=mol_2657.chk
# wB97XD/Def2SVP opt pop=full gfinput

C 6 H 6 O 1

1 2
C    3.588495  -0.936624  -2.280748
C    4.107679   0.428533  -0.213615
C    6.226232   2.195616   0.075816
O    7.005498   3.883860  -1.902557
C    5.656706   4.997078   0.165786
C    7.192789   6.616971   1.691551
C    8.476423   7.981485   2.972142
H    1.982814  -2.210262  -2.335172
H    4.758689  -0.796406  -3.961395
H    2.878506   0.217092   1.421622
H    7.716753   1.483359   1.292799
H    3.744851   5.623674  -0.213634
H    9.624300   9.194122   4.096435

