%chk=mol_2575.chk
# wB97XD/Def2SVP opt pop=full gfinput

C 5 H 8 O 2

1 2
C    1.928541   0.177785   0.098946
C    4.785902  -0.035432  -0.082638
O    5.900443   2.025730   1.260542
C    8.219666   1.033208   2.209279
O    8.057452  -1.640433   2.546311
C    5.945721  -2.291898   1.152714
C    5.118304  -4.677620   1.119587
H    0.983962  -1.310525  -0.981297
H    1.298601   2.011443  -0.625821
H    1.293177   0.070997   2.067058
H    5.396226   0.090480  -2.058668
H    9.742464   1.459058   0.870729
H    8.654038   1.931395   4.020222
H    3.441909  -5.229760   0.080049
H    6.123355  -6.138340   2.150697

