%chk=mol_0471.chk
# wB97XD/Def2SVP opt pop=full gfinput

C 6 H 8

1 2
C    1.937536   0.032277  -0.277771
C    4.443615   0.011130   0.009146
C    6.112055  -2.290083   0.142542
C    8.699146  -1.266116   0.949247
C    8.400210   1.539598   0.783556
C    6.020743   2.206747   0.280398
H    0.881009  -1.717950  -0.451928
H    0.876077   1.785413  -0.334784
H    6.249608  -3.183716  -1.722901
H    5.408151  -3.689558   1.493243
H   10.198701  -1.945813  -0.303906
H    9.154873  -1.828839   2.887653
H    9.932363   2.855584   1.092451
H    5.345563   4.129619   0.125780

