%chk=mol_4290.chk
# wB97XD/Def2SVP opt pop=full gfinput

C 4 H 4 N 2 O 1

1 2
C    5.472288  -2.075070   0.792948
C    4.346143   0.111116   0.191184
C    5.697486   2.424500   0.034166
N    4.718835   4.659328  -0.548436
N    6.639288   6.417094  -0.499114
C    8.679928   5.163677   0.109094
O    8.270878   2.659600   0.477817
H    4.381084  -3.809121   0.895862
H    7.480235  -2.205556   1.195025
H    2.334530   0.172608  -0.199309
H   10.584394   5.852142   0.345801

