%chk=mol_4642.chk
# wB97XD/Def2SVP opt pop=full gfinput

C 4 H 9 N 1 O 2

1 2
C    4.178922  -1.114182  -1.098762
C    6.494138   0.569696  -0.873583
C    6.421649   2.210129   1.476897
O    4.663372   2.173166   3.004816
N    8.503674   3.749670   1.866615
C   10.021407   4.876646  -0.113289
O    8.148858   5.489428   3.886486
H    4.286409  -2.258317  -2.817128
H    2.448083   0.014513  -1.181060
H    4.028216  -2.390598   0.521829
H    6.591969   1.792783  -2.541512
H    8.198520  -0.604391  -0.807896
H   10.652027   3.425204  -1.440576
H   11.666697   5.804823   0.725768
H    8.872718   6.265122  -1.127656
H    6.519876   4.940028   4.590296

