%chk=mol_4483.chk
# wB97XD/Def2SVP opt pop=full gfinput

C 4 H 8 N 2 O 1

1 2
C    1.363608   0.028157   0.107204
C    4.133001   0.069107   0.658324
C    5.710563   1.814950  -0.268927
N    8.241569   1.801060   0.270817
C    9.897422   3.612023  -0.557205
N   12.320768   3.135623   0.163216
O    9.374005   5.493623  -1.791800
H    0.856462  -1.751927  -0.814793
H    0.787260   1.582551  -1.129848
H    0.293059   0.175858   1.870149
H    4.831066  -1.424098   1.882318
H    5.053222   3.329206  -1.498704
H    8.917183   0.492614   1.482717
H   12.896832   1.318594   0.164841
H   13.572523   4.371295  -0.591635

