%chk=mol_4076.chk
# wB97XD/Def2SVP opt pop=full gfinput

C 4 H 5 N 1 O 2

1 2
C    2.026731  -0.082978   0.337203
C    4.524874   0.042953  -0.017385
C    6.211322   2.281240   0.038683
O    8.695991   1.397188  -0.637745
N    8.498212  -1.249185  -0.944561
C    6.117591  -2.160033  -0.588480
O    5.428182  -4.350376  -0.708156
H    1.036968  -1.880353   0.225293
H    0.916196   1.591130   0.741170
H    6.317657   3.110792   1.926576
H    5.638262   3.717186  -1.332673
H   10.046067  -2.301516  -1.323866

