%chk=mol_2858.chk
# wB97XD/Def2SVP opt pop=full gfinput

C 6 H 12 O 1

1 2
C    2.352633  -0.677901   0.189653
C    5.197049  -1.048477   0.003383
C    6.578685   1.485022  -0.192695
C    9.413425   1.156890  -0.354683
C   10.622528   1.211919  -2.588188
C   10.808175   0.787884   2.095007
O   10.607354   3.022390   3.569126
H    1.395941  -2.509103   0.274180
H    1.628150   0.350204  -1.451820
H    1.856467   0.385145   1.893865
H    5.618023  -2.211811  -1.659369
H    5.848230  -2.103945   1.663772
H    6.104609   2.683392   1.428916
H    5.892034   2.504095  -1.864687
H    9.602662   1.473419  -4.350679
H   12.657669   0.978576  -2.720865
H   12.817672   0.398997   1.795693
H   10.017892  -0.789036   3.172964
H   11.027800   4.422451   2.454981

