%chk=mol_2012.chk
# wB97XD/Def2SVP opt pop=full gfinput

C 4 H 3 N 3

1 2
N    1.803989  -0.043898   0.010847
C    3.995297   0.088137   0.004252
C    6.689952   0.091406  -0.003836
N    8.140071   2.118818  -0.013379
C   10.578706   1.237676  -0.020069
C   10.616690  -1.359034  -0.014286
N    8.130094  -2.065130  -0.003307
H   12.173502   2.521254  -0.028932
H   12.142889  -2.716670  -0.017008
H    7.451568  -3.851319   0.003402

