%chk=mol_0451.chk
# wB97XD/Def2SVP opt pop=full gfinput

C 4 H 8 N 2

1 2
C    1.551087  -1.359904   0.265544
C    3.959997   0.002740  -0.428495
N    6.004454  -1.302286  -0.808085
N    4.105600   2.570935  -0.655811
C    2.368677   4.456371  -0.349939
C    2.784644   6.928020  -0.665883
H   -0.096395  -0.125572   0.267963
H    1.771089  -2.191875   2.145179
H    1.218552  -2.882078  -1.094265
H    5.645916  -3.192296  -0.567579
H    5.869999   3.151118  -1.142321
H    0.494069   3.832081   0.205016
H    4.620210   7.654128  -1.217040
H    1.274847   8.285504  -0.378021

