%chk=mol_4744.chk
# wB97XD/Def2SVP opt pop=full gfinput

C 5 H 7 N 1 O 1

1 2
C    1.765930  -0.512154   0.160098
C    4.586214   0.005726   0.244890
N    5.146064   2.633239  -0.245003
C    5.375005   3.564798  -2.653081
O    5.212016   2.313573  -4.588349
C    5.836136   6.253047  -2.811686
C    6.221735   8.487289  -2.946442
H    1.387418  -2.506778   0.552953
H    0.976365  -0.056635  -1.697409
H    0.764092   0.628221   1.566621
H    5.563600  -1.170855  -1.149199
H    5.338760  -0.445654   2.117778
H    5.203985   3.866417   1.213733
H    6.566326  10.465265  -3.094635

