%chk=mol_3768.chk
# wB97XD/Def2SVP opt pop=full gfinput

C 5 H 8 O 2

1 2
O    4.879897  -1.621196   1.518263
C    4.496755   0.054160  -0.557885
C    5.531965   2.707637   0.000000
C    4.496282   3.717620   2.518343
O    4.975498   6.363256   2.768335
C    8.260730   2.707637   0.000000
C   10.509807   2.707637   0.000000
H    4.400076  -3.303827   0.951874
H    2.458723   0.149761  -0.910224
H    5.403842  -0.761522  -2.232466
H    4.902441   3.969975  -1.521475
H    5.322357   2.755466   4.154525
H    2.443737   3.472693   2.600377
H    6.803789   6.564625   2.835005
H   12.524141   2.694768   0.002721

