%chk=mol_5220.chk
# wB97XD/Def2SVP opt pop=full gfinput

C 4 H 8 N 2 O 1

1 2
C    2.667122  -0.256511  -2.801784
N    4.817120  -0.778907  -1.212751
C    6.518743   1.121212  -0.686462
O    6.385479   3.246946  -1.590053
N    8.381332   0.305625   0.945165
C   10.282756   1.825475   1.821904
C   12.115412   0.952422   3.320494
H    1.763662  -2.046233  -3.293207
H    3.273402   0.722726  -4.517598
H    1.340024   0.937512  -1.761111
H    4.581905  -2.089073   0.150403
H    8.426421  -1.552164   1.370448
H   10.229843   3.797197   1.233632
H   12.204475  -1.001744   3.928419
H   13.594028   2.213625   3.976740

