%chk=mol_2035.chk
# wB97XD/Def2SVP opt pop=full gfinput

C 5 H 8 N 2

1 2
N    2.013409  -0.056711   0.629562
C    4.181114  -0.114423   0.314961
C    6.922823  -0.175329  -0.105541
C    8.094131   2.417224   0.379192
C   10.873899   2.419492  -0.172154
C   12.653757   3.935959   1.455240
N   12.588146   1.178282   1.590790
H    7.314431  -0.775619  -2.049257
H    7.784783  -1.589864   1.138447
H    7.729282   2.992910   2.339273
H    7.187385   3.842475  -0.824091
H   11.299882   2.228006  -2.166949
H   11.917993   4.924399   3.089778
H   14.307778   4.774507   0.589802
H   14.115990   0.422203   0.679961

