%chk=mol_6704.chk
# wB97XD/Def2SVP opt pop=full gfinput

C 3 H 3 N 1 O 2 S 1

1 2
O    1.737981  -0.143336   0.126366
S    4.447981  -0.150876   0.482579
O    5.589696  -0.144621   2.965018
C    5.743860   2.286928  -1.274847
C    7.150629   1.432148  -3.181430
C    7.043727  -1.322109  -3.038075
N    5.732541  -2.346945  -1.261298
H    5.383546   4.228470  -0.786995
H    8.179623   2.492927  -4.575972
H    8.090333  -2.422629  -4.457656

