%chk=mol_1723.chk
# wB97XD/Def2SVP opt pop=full gfinput

C 5 H 12 N 2

1 2
C    5.077014  -1.734561  -1.098366
N    6.617443   0.442706  -1.779272
C    6.180897   2.541814  -0.024283
C    7.710801   4.867462  -0.827360
C    7.392004   7.005782   1.006015
C    7.311294   9.692916   0.065819
N    5.040466   8.451044   1.018317
H    5.442241  -3.279658  -2.424349
H    3.056462  -1.290872  -1.182534
H    5.540866  -2.418642   0.798995
H    6.149679   1.007016  -3.561888
H    6.735229   1.983967   1.894639
H    4.166393   3.029855   0.023981
H    7.148059   5.446928  -2.736021
H    9.726628   4.384240  -0.919484
H    8.256742   6.632542   2.825783
H    7.349901  10.044915  -1.951974
H    8.108929  11.172514   1.233538
H    4.618434   9.065772   2.799346

