%chk=mol_3822.chk
# wB97XD/Def2SVP opt pop=full gfinput

C 5 H 5 N 1 O 1

1 2
C    4.012569   1.140544   1.606154
C    4.646175  -0.081069  -0.997889
C    6.435028   2.056268  -1.379406
N    6.937695   3.761405  -3.142256
O    6.967307   6.070556  -1.778913
C    6.072503   5.652227   0.635987
C    5.834775   3.122432   0.902628
H    4.590939  -0.001002   3.233000
H    2.082686   1.808751   1.924025
H    3.149380  -0.215939  -2.417017
H    5.583574  -1.922796  -0.863888
H    5.521893   7.323463   1.666134

