%chk=mol_2150.chk
# wB97XD/Def2SVP opt pop=full gfinput

C 5 H 8 N 2

1 2
N    1.682121   2.086390  -1.519434
N    4.184269   1.853122  -1.974443
C    5.544627   2.208504   0.027628
C    8.375890   2.077981  -0.112609
C    9.443509   4.747918  -0.029102
C   12.220633   4.724164  -0.110870
C   14.486753   4.716038  -0.186384
H    0.766378   2.378749  -3.199798
H    0.961512   0.402965  -0.892801
H    4.710634   2.688627   1.883282
H    8.944659   1.108721  -1.852177
H    9.046875   0.959867   1.495926
H    8.808240   5.711244   1.692628
H    8.708444   5.852123  -1.621517
H   16.500257   4.713317  -0.262294

