%chk=mol_1201.chk
# wB97XD/Def2SVP opt pop=full gfinput

C 6 H 11 N 1

1 2
C    1.891011  -0.101573   0.006312
C    4.762110   0.000000   0.000000
C    5.672996   2.572238   0.000000
C    6.423746   4.692322   0.000000
C    7.334632   7.264561   0.000000
N    5.206744   9.009156  -0.225463
C    6.053681  11.622572  -0.114744
H    1.242193  -2.065395   0.006255
H    1.105603   0.835127  -1.664187
H    1.113030   0.832576   1.681686
H    5.471494  -1.006770  -1.664679
H    5.478883  -1.009378   1.659935
H    8.642964   7.541406  -1.581720
H    8.381465   7.630185   1.750359
H    3.977363   8.667702   1.217078
H    7.354134  12.054884  -1.664622
H    6.981461  12.046645   1.685352
H    4.424662  12.883000  -0.301222

