%chk=mol_5808.chk
# wB97XD/Def2SVP opt pop=full gfinput

C 4 H 6 N 2 O 1

1 2
N    2.249851   0.298482   0.832689
C    4.611839   0.371029   0.259554
N    6.259208   2.306014   0.719116
C    5.213584   4.834921   0.928404
C    7.219170   5.682293  -0.982450
O    7.865059   7.672061  -1.915672
C    8.049836   2.920950  -1.256876
H    1.496965  -1.408432   0.301903
H    5.520306  -1.270916  -0.658135
H    5.444358   5.618912   2.822117
H    3.281037   5.064957   0.239655
H    7.620755   2.099354  -3.102212
H    9.997520   2.546690  -0.691507

