%chk=mol_0668.chk
# wB97XD/Def2SVP opt pop=full gfinput

C 5 H 10 O 1

1 2
C    5.803216  -2.250513  -0.887982
C    4.470109   0.031332   0.240732
C    6.179461   2.291728   0.391306
O    8.312055   1.999538   2.037333
C    6.621714   3.911393  -1.899156
C    5.090053   4.914214   0.274974
H    4.510474  -3.861618  -0.986683
H    7.435241  -2.804656   0.256209
H    6.478945  -1.844524  -2.800763
H    3.796025  -0.436980   2.142723
H    2.793752   0.460866  -0.899982
H    7.782932   1.889972   3.793871
H    5.639963   3.444574  -3.633735
H    8.504920   4.665866  -2.181878
H    5.937860   6.370173   1.439442
H    3.072978   5.132326  -0.000057

