%chk=mol_4111.chk
# wB97XD/Def2SVP opt pop=full gfinput

C 5 H 11 N 1 O 1

1 2
C    1.824739  -0.023338  -0.019842
C    4.704379   0.033958  -0.035829
N    5.559669   0.255396  -2.675474
C    5.802744   2.139283   1.583874
C    8.433526   1.183762   2.194426
O    8.336055  -1.524026   2.145954
C    5.882037  -2.285189   1.244347
H    1.088955  -0.197760   1.907735
H    1.099839  -1.629265  -1.107965
H    1.033189   1.710221  -0.830742
H    7.475643   0.045372  -2.759756
H    5.162524   2.010480  -3.359272
H    4.722048   2.327557   3.344589
H    5.825629   4.000229   0.679300
H    9.809927   1.794087   0.775336
H    9.087296   1.819277   4.049135
H    6.093271  -3.908747  -0.021089
H    4.781650  -2.894871   2.890393

