%chk=mol_1952.chk
# wB97XD/Def2SVP opt pop=full gfinput

C 5 H 10 N 2

1 2
N    1.761829  -0.194831   0.643792
C    4.385053   0.289487  -0.106033
C    5.622200   2.207351   1.707575
N    7.887263   0.543202   1.797942
C    6.212173  -1.637278   1.159309
C    7.479857  -3.433387  -0.581280
C    9.452146  -4.814021   0.199971
H    1.018090  -1.787757  -0.141862
H    0.554162   1.238281   0.204090
H    4.683233   0.669058  -2.119158
H    4.720725   2.435706   3.560943
H    5.971799   4.084662   0.914174
H    9.173354   0.927213   0.415626
H    5.458871  -2.581423   2.849594
H    6.752823  -3.652330  -2.486898
H   10.194487  -4.638182   2.106610
H   10.368776  -6.148677  -1.057661

