%chk=mol_5364.chk
# wB97XD/Def2SVP opt pop=full gfinput

C 4 H 7 N 1 O 2

1 2
C    6.962998  -2.014108   0.892196
O    5.134197  -0.040213   0.850509
C    5.999238   2.357622   0.408464
C    8.367537   3.135377  -0.017102
C    8.842331   5.845679  -0.452703
N   11.093675   6.688856  -0.894256
O   10.975303   9.309962  -1.234615
H    5.971724  -3.793039   1.249317
H    8.327041  -1.722863   2.420796
H    7.924000  -2.173034  -0.933525
H    4.394237   3.635909   0.448867
H    9.996046   1.902746  -0.071488
H    7.186874   7.117049  -0.384710
H   12.737188   9.745733  -1.558495

