%chk=mol_4987.chk
# wB97XD/Def2SVP opt pop=full gfinput

C 4 H 5 N 1 O 2

1 2
C    1.877500   0.046638  -0.014551
N    4.589729   0.054160   0.001890
C    6.104930   2.112884   0.004838
C    8.445488   1.222955   0.015307
O    8.609441  -1.410643   0.017726
C    6.068534  -2.099013   0.007521
O    5.327081  -4.285559   0.003364
H    1.136519   1.975350   0.012623
H    1.199428  -0.988761   1.641416
H    1.220971  -0.933770  -1.712073
H    5.423193   4.033545   0.000094
H   10.224401   2.205140   0.020919

