%chk=mol_4311.chk
# wB97XD/Def2SVP opt pop=full gfinput

C 5 H 9 N 1 O 1

1 2
C    1.593908  -0.251863   0.344195
C    4.405122   0.026022   0.433749
C    5.770657   2.137167   0.021089
C    4.769329   4.724202  -0.557035
C    8.585026   2.034252   0.234572
N    9.706143  -0.046846  -0.774712
O    9.830658   3.775333   1.109855
H    1.089900  -1.735392  -1.007148
H    0.603768   1.467070  -0.217111
H    0.890477  -0.814604   2.205707
H    5.381543  -1.710410   0.950986
H    2.723473   4.768497  -0.825092
H    5.625450   5.448269  -2.296546
H    5.217666   6.033196   0.982865
H    8.744329  -1.346222  -1.788361
H   11.616467  -0.083356  -0.804683

