%chk=mol_1243.chk
# wB97XD/Def2SVP opt pop=full gfinput

C 7 H 8

1 2
C    1.788399   0.006255  -0.370726
C    4.288450   0.015760   0.051930
C    5.637261   2.407927   0.271346
C    8.114711   2.419832   0.815511
C    9.631518   0.038078   1.213960
C    8.135649  -2.354693   0.816343
C    5.656895  -2.362914   0.271648
H    0.728527  -1.742875  -0.542219
H    0.714109   1.744690  -0.541747
H    4.620664   4.167734  -0.004592
H    9.111542   4.205038   0.984453
H   11.238503   0.045335  -0.093220
H   10.390810   0.042028   3.141821
H    9.145707  -4.131773   0.985549
H    4.654755  -4.132642  -0.003572

