%chk=mol_0949.chk
# wB97XD/Def2SVP opt pop=full gfinput

C 4 H 5 N 1 O 1

1 2
C    1.853481  -0.039949  -0.012378
C    4.641319   0.044975   0.000208
C    6.235170   2.100185   0.001682
O    8.659500   1.235881   0.014891
C    8.396488  -1.322430   0.020768
N    6.052094  -2.140172   0.012359
H    1.042222   1.862344   0.006161
H    1.157797  -1.053768   1.650241
H    1.172178  -1.015501  -1.703588
H    5.988013   4.125537  -0.004989
H   10.118160  -2.420607   0.031615

