%chk=mol_6572.chk
# wB97XD/Def2SVP opt pop=full gfinput

C 4 H 6 O 2 S 1

1 2
C    1.834093  -0.095431   0.019993
C    4.687919   0.123153   0.003383
S    5.654155   3.342548  -0.009411
O    5.272393   4.533359  -2.433419
O    5.300946   4.544734   2.411933
C    9.029735   3.248307  -0.028705
C   11.301545   3.187949  -0.041461
H    1.262677  -2.082403   0.028006
H    1.010399   0.809407  -1.648370
H    1.029239   0.817439   1.693176
H    5.472156  -0.773068  -1.685976
H    5.491185  -0.764980   1.688187
H   13.313687   3.166595  -0.052856

