%chk=mol_0253.chk
# wB97XD/Def2SVP opt pop=full gfinput

C 5 H 11 N 1

1 2
C    2.001069  -0.124174  -0.013455
C    4.815098  -0.053914  -0.109377
C    6.199285  -1.114863  -2.360703
C    6.142725   1.706517  -1.923363
C    8.464178   3.091932  -1.112765
N    9.947745   3.633584  -3.361350
H    1.297089   1.354499   1.249166
H    1.360414  -1.951331   0.712691
H    1.150333   0.161968  -1.877613
H    5.641399  -0.355231   1.741628
H    5.109857  -1.849910  -3.932955
H    7.946242  -2.128191  -2.016583
H    4.981243   2.843376  -3.175477
H    9.590795   1.981983   0.222780
H    7.932390   4.861793  -0.183870
H   10.453076   1.971608  -4.191451
H   11.587480   4.494676  -2.840636

