%chk=mol_4721.chk
# wB97XD/Def2SVP opt pop=full gfinput

C 4 H 10 N 2 O 1

1 2
C    1.736110  -0.076969  -0.090612
C    4.611064   0.020636   0.087589
N    5.770109  -1.400741  -2.016073
C    5.563486   2.774118   0.118486
N    8.301246   2.856888   0.118524
C    9.619745   4.951404   0.851359
O    8.700072   6.893570   1.698826
H    0.876531   0.932145   1.497476
H    1.056584  -2.030681  -0.035092
H    1.053522   0.789962  -1.841538
H    5.206498  -0.899207   1.847358
H    5.165188  -0.656718  -3.690730
H    5.105398  -3.212289  -1.986990
H    4.849982   3.778961   1.781275
H    4.924267   3.798520  -1.564901
H    9.196427   1.422454  -0.785786
H   11.672876   4.703868   0.600631

