%chk=mol_4211.chk
# wB97XD/Def2SVP opt pop=full gfinput

C 4 H 6 N 2 O 1

1 2
C    1.895131   0.077498   0.012245
C    4.767552   0.082298   0.136948
O    5.666986   2.355695  -0.959924
C    7.158075   2.092191  -3.011770
N    7.917537   0.017102  -4.039365
N    7.227787  -2.313856  -3.013357
C    5.763174  -2.290821  -1.062045
H    1.123272   1.778176   0.906086
H    1.099632  -1.585669   0.952365
H    1.239093   0.078745  -1.952881
H    5.354992   0.062814   2.120915
H    7.699368   3.952287  -3.766980
H    5.201811  -4.103918  -0.205999

