%chk=mol_3746.chk
# wB97XD/Def2SVP opt pop=full gfinput

C 5 H 6 O 2

1 2
O    2.217461  -0.030425   0.812450
C    4.788264   0.112590  -0.000208
C    4.947454  -0.714638  -2.759340
C    7.570602  -1.096608  -3.600250
C    9.708128  -1.401931  -4.302075
C    5.772584   2.796322   0.323011
O    4.566996   4.439798   1.441823
H    1.951974   1.400759   1.956660
H    5.911573  -1.122630   1.223806
H    4.018238   0.685989  -3.973111
H    3.881894  -2.475730  -3.011165
H   11.597268  -1.680836  -4.943542
H    7.699311   3.167653  -0.379797

