%chk=mol_1863.chk
# wB97XD/Def2SVP opt pop=full gfinput

C 5 H 10 N 2

1 2
C   12.689398  -0.406593   1.687318
N   11.561250   2.095423   1.418296
N    9.206594   2.129532   0.415948
C    8.359166   4.387604  -0.003061
C    5.782789   4.782538  -1.153357
C    4.131225   6.108861   0.729302
C    3.099019   8.388362   0.357650
H   14.611268  -0.232172   2.427712
H   12.797055  -1.362493  -0.143411
H   11.589861  -1.577449   2.990737
H   11.609457   2.980325   3.137059
H    9.478168   6.102757   0.417138
H    4.945640   2.960010  -1.658367
H    6.021801   5.897703  -2.879773
H    3.742697   5.110500   2.486086
H    3.403529   9.449387  -1.374171
H    1.894809   9.244105   1.784620

