%chk=mol_1275.chk
# wB97XD/Def2SVP opt pop=full gfinput

C 6 H 7 N 1

1 2
C    1.873323  -0.017801   0.167033
C    4.762110   0.000000   0.000000
C    5.625847  -1.433149  -2.371871
C    8.352571  -1.968093  -2.318297
N   10.497240  -2.430887  -2.285227
C    5.672996   2.572238   0.000000
C    6.423746   4.692322   0.000000
H    1.221330   0.973965   1.864687
H    1.151958  -1.955961   0.254111
H    1.012421   0.913116  -1.471341
H    5.489182  -0.975382   1.681384
H    5.160332  -0.363659  -4.086457
H    4.616412  -3.239558  -2.501790
H    7.107997   6.587434   0.006104

