%chk=mol_1537.chk
# wB97XD/Def2SVP opt pop=full gfinput

C 5 H 12 N 2

1 2
C    4.038231  -1.150125   2.586260
C    4.943316  -0.189369   0.019105
N    2.912616  -0.366191  -1.841028
C    5.794807   2.509972   0.186610
C    8.173009   3.281018  -0.270817
C    9.032324   5.963371  -0.137950
N   11.072680   6.174604   1.691777
H    5.562333  -1.057718   3.984828
H    3.422294  -3.123150   2.460953
H    2.449973  -0.034393   3.310781
H    6.505552  -1.391519  -0.620397
H    1.329933   0.482768  -1.150938
H    2.448121  -2.218009  -2.087221
H    4.373903   3.898940   0.710405
H    9.598958   1.905543  -0.820066
H    7.488815   7.237783   0.389680
H    9.717709   6.548581  -2.000559
H   10.380965   5.744635   3.436391
H   11.639220   8.010889   1.782314

