%chk=mol_6682.chk
# wB97XD/Def2SVP opt pop=full gfinput

C 4 H 5 N 1 O 1 S 1

1 2
O    3.157732  -0.568770  -2.078982
C    4.904879  -0.260102  -0.059999
C    5.577961   2.459271   0.074795
C    4.225144   4.595606  -0.580751
C    5.662829   6.809061  -0.073567
N    7.949133   6.479947   0.916706
S    8.442389   3.402943   1.255383
H    2.814766  -2.368337  -2.206671
H    6.555233  -1.448229  -0.437774
H    4.002950  -0.874509   1.696861
H    2.343071   4.559909  -1.380010
H    5.060120   8.733861  -0.417743

