%chk=mol_1998.chk
# wB97XD/Def2SVP opt pop=full gfinput

C 7 H 10

1 2
C    2.686321  -0.879044   0.060868
C    5.176980  -0.445390   0.118013
C    6.244940   2.061597   0.036018
C    8.741306   2.512788   0.078991
C    9.916924   5.021002   0.018066
C   12.151393   5.438575  -1.695538
C    9.651266   6.621959  -2.320735
H    1.962443  -2.796946   0.125742
H    1.314985   0.641921  -0.052138
H    6.467758  -2.041414   0.229904
H    4.944336   3.650497  -0.070581
H   10.038981   0.920939   0.199876
H    9.938259   5.991849   1.826439
H   12.799417   3.900829  -2.884251
H   13.651759   6.663476  -1.028087
H    9.455434   8.645969  -2.072822
H    8.615659   5.876349  -3.924035

