%chk=mol_6876.chk
# wB97XD/Def2SVP opt pop=full gfinput

C 5 H 10 N 2

1 2
C    1.977183  -0.112533   0.042481
C    4.858051  -0.053404  -0.018859
N    5.806996  -2.127775  -1.544643
C    6.451563  -1.159819  -3.834443
N    6.539662   1.274771  -4.097342
C    5.885458   2.249794  -1.517582
C    8.274638   3.347896  -0.336957
H    1.240435   1.496493   1.112406
H    1.303495  -1.848814   0.943805
H    1.167189  -0.045221  -1.860927
H    5.607101  -0.142240   1.908756
H    4.872621  -3.796875  -1.503277
H    6.811537  -2.533915  -5.355616
H    4.457202   3.739730  -1.688810
H    9.769903   1.924762  -0.181659
H    7.883068   4.084454   1.555793
H    9.010139   4.897773  -1.494414

