%chk=mol_1625.chk
# wB97XD/Def2SVP opt pop=full gfinput

C 6 H 9 N 1

1 2
C    2.239363  -0.304662   0.004932
N    4.996398  -0.222175  -0.074720
C    6.043287  -1.045756  -2.488902
C    5.986558   1.726511  -1.777835
C    8.362549   3.081728  -1.047872
C    9.424556   3.964816  -3.454589
C   10.310157   4.695403  -5.413877
H    1.546590   1.050726   1.406429
H    1.620421  -2.188643   0.595150
H    1.318897   0.126442  -1.801703
H    4.767684  -1.702246  -3.949017
H    7.826622  -2.047084  -2.390333
H    4.625653   2.954700  -2.697093
H    9.698736   1.844543  -0.064685
H    7.920031   4.677110   0.191845
H   11.099627   5.343616  -7.149949

