%chk=mol_4693.chk
# wB97XD/Def2SVP opt pop=full gfinput

C 5 H 11 N 1 O 1

1 2
C    2.923047  -1.449061   0.970885
C    5.721221  -1.387890   0.313203
N    6.614892   1.230986   0.323956
C    9.308300   1.427707  -0.362998
C    9.912501   4.173498  -0.992919
C   11.025702   0.602010   1.804651
O   10.317055   0.176727   3.974453
H    2.242954  -3.402301   1.008622
H    1.805255  -0.412452  -0.428854
H    2.567911  -0.615748   2.831698
H    5.984328  -2.228648  -1.561027
H    6.758322  -2.540964   1.683954
H    6.403790   1.936308   2.114887
H    9.727876   0.246137  -2.011273
H    9.561920   5.420037   0.624800
H    8.770163   4.842990  -2.584106
H   11.906730   4.386470  -1.508587
H   13.045138   0.437094   1.305650

