%chk=mol_3440.chk
# wB97XD/Def2SVP opt pop=full gfinput

C 5 H 8 O 2

1 2
C    5.792029  -2.500278   0.378172
O    8.179566  -1.399758  -0.173042
C    7.963684   1.261883  -0.597815
C   10.511734   2.408286  -1.095682
C   12.738946   1.194345  -1.174162
C   10.516950   5.178171  -1.537935
O    8.577977   6.443059  -1.507869
H    6.060541  -4.529862   0.656642
H    4.480503  -2.217386  -1.195195
H    5.008171  -1.695047   2.114301
H    7.122037   2.144404   1.077560
H    6.726046   1.580076  -2.229272
H   12.831278  -0.834201  -0.861129
H   14.515326   2.148089  -1.544001
H   12.378538   6.045215  -1.897323

