%chk=mol_3149.chk
# wB97XD/Def2SVP opt pop=full gfinput

C 5 H 8 O 2

1 2
C    2.273170   0.074323   2.168253
C    3.856005   0.627219  -0.136287
O    3.332097  -0.404798  -2.170993
C    6.094121   2.504284   0.170227
C    5.935800   5.028807  -1.245972
C    6.593802   6.212872   1.294822
O    6.194031   3.837372   2.590078
H    3.477266  -0.666412   3.673798
H    0.841268  -1.344937   1.709257
H    1.324377   1.801155   2.787214
H    7.902627   1.531793  -0.136797
H    4.057280   5.521326  -1.953901
H    7.340112   5.295674  -2.736191
H    8.547779   6.856531   1.498647
H    5.292896   7.676975   1.951218

