%chk=mol_4795.chk
# wB97XD/Def2SVP opt pop=full gfinput

C 5 H 9 N 1 O 1

1 2
C    7.230697  10.547242   3.063851
C    8.229511   8.763945   1.113616
N   10.260778   7.472695   1.519642
O   10.781246   6.025448  -0.644945
C   13.054172   4.623328  -0.240619
C   14.051871   3.848389  -2.773608
C   14.526079   1.461741  -3.481178
H    7.169092  12.448514   2.255312
H    8.425628  10.550606   4.749090
H    5.309318   9.982969   3.571904
H    7.163309   8.620817  -0.673215
H   12.628964   2.992419   0.960642
H   14.466591   5.807487   0.705095
H   14.409616   5.376687  -4.101292
H   14.196417  -0.122983  -2.223962
H   15.252169   1.055639  -5.356693

