%chk=mol_2373.chk
# wB97XD/Def2SVP opt pop=full gfinput

C 5 H 8 O 2

1 2
C    1.831201  -0.050002   0.264165
C    4.644569   0.247705  -0.159266
C    6.040226   2.092664   1.582664
C    7.799183  -0.150932   2.118704
O    6.030626  -1.876215   0.892820
C   10.478399  -0.131317   0.902647
O   11.140786   0.990538  -1.026556
H    1.089427  -1.626676  -0.850641
H    0.824355   1.663054  -0.310709
H    1.394240  -0.413680   2.253820
H    5.113636   0.482655  -2.165324
H    4.977425   2.746623   3.230940
H    6.894722   3.712594   0.627729
H    7.913889  -0.593752   4.141278
H   11.890062  -1.234615   1.965806

