%chk=mol_4928.chk
# wB97XD/Def2SVP opt pop=full gfinput

C 5 H 9 N 1 O 1

1 2
C    0.506277  -0.940649   1.210237
C    2.941132  -1.757030  -0.057504
O    5.004108  -0.565652   1.207157
N    7.250463  -1.240624  -0.028516
C    9.128719  -0.233022   1.163863
C   11.758310  -0.590917   0.311162
C   13.666121   0.453591   1.598104
H   -1.125559  -1.843485   0.322179
H    0.280039   1.112009   1.092148
H    0.531485  -1.428822   3.219848
H    2.926770  -1.194231  -2.050693
H    3.154331  -3.813071   0.067879
H    8.848511   0.936529   2.870494
H   12.052390  -1.717459  -1.373906
H   13.367942   1.579282   3.286007
H   15.603242   0.192110   0.970733

