%chk=mol_0154.chk
# wB97XD/Def2SVP opt pop=full gfinput

C 4 H 11 N 1

1 2
C    2.194426  -0.522415  -0.169830
C    5.059382  -0.305474  -0.104407
C    5.909835   2.451334   0.033958
C    8.788436   2.650908   0.101705
N    9.562638   5.292329   0.245079
H    1.627772  -2.509330  -0.272083
H    1.414932   0.453081  -1.819277
H    1.350379   0.299522   1.530432
H    5.846359  -1.202319  -1.799624
H    5.781598  -1.351003   1.532719
H    5.106513   3.337332   1.726832
H    5.171840   3.483181  -1.603830
H    9.608596   1.787870  -1.593776
H    9.536408   1.639961   1.747241
H    8.925177   6.239441  -1.306009
H   11.485056   5.399042   0.190749

