%chk=mol_2258.chk
# wB97XD/Def2SVP opt pop=full gfinput

C 6 H 10 O 1

1 2
C    1.447474   0.035905   0.184040
C    4.263600   0.039061   0.305436
C    5.869905  -1.592094  -1.401156
C    4.982943  -2.690327  -3.835501
O    5.022873  -0.685668  -5.667043
C    5.009021   1.697730  -4.365645
C    5.885495   1.201185  -1.737906
H    0.712143   1.809299   0.956485
H    0.697876  -1.515315   1.325511
H    0.708496  -0.172211  -1.733162
H    4.902328   0.267850   2.241518
H    7.537210  -2.500013  -0.647288
H    6.235662  -4.195022  -4.499098
H    3.063208  -3.446539  -3.706395
H    6.279862   2.985370  -5.366539
H    3.099113   2.486804  -4.424643
H    7.562627   2.244069  -1.218665

