%chk=mol_3665.chk
# wB97XD/Def2SVP opt pop=full gfinput

C 7 H 10

1 2
C    1.891559  -0.101705   0.005745
C    4.762110   0.000000   0.000000
C    5.672996   2.572238   0.000000
C    6.423746   4.692322   0.000000
C    7.310651   7.196871   0.000000
C    5.775986   9.207237  -0.011471
C    6.724174  11.867253  -0.011263
H    1.242211  -2.065754   0.005159
H    1.105735   0.835353  -1.664811
H    1.112595   0.832065   1.681346
H    5.471816  -1.006827  -1.664509
H    5.478600  -1.009303   1.660105
H    9.347511   7.458522   0.010658
H    3.735913   8.952294  -0.022620
H    8.795787  11.955938   0.006123
H    6.031798  12.869658   1.660672
H    6.056610  12.862535  -1.694744

