%chk=mol_6592.chk
# wB97XD/Def2SVP opt pop=full gfinput

C 4 H 5 N 1 O 1 S 1

1 2
C    1.665113  -0.059904  -0.007351
N    4.382350   0.051382   0.021618
S    5.971875   2.832832  -0.038248
C    8.813777   1.218382  -0.035546
C    8.584893  -1.296976  -0.007332
C    5.899574  -2.068910   0.014551
O    5.236979  -4.277395   0.020409
H    0.826169   1.827290   0.058676
H    1.026008  -1.159952   1.622670
H    1.056829  -1.034209  -1.726737
H   10.604917   2.204895  -0.056730
H   10.084429  -2.670637  -0.003723

