%chk=mol_5934.chk
# wB97XD/Def2SVP opt pop=full gfinput

C 5 H 9 N 1 O 1

1 2
O    1.924459  -0.041253   0.143109
C    4.647347   0.002173  -0.007219
C    5.870850   1.944415  -1.851251
C    5.102790   0.065120  -3.977344
C    5.949028  -1.874665  -1.915559
N    8.694592  -1.350720  -1.643741
C    8.673314   1.424608  -1.546287
H    1.478597   1.484569   1.064332
H    5.430676  -0.017197   1.912082
H    5.158121   3.871992  -1.912138
H    6.206428   0.121982  -5.727420
H    3.095031   0.034204  -4.485643
H    5.336832  -3.833971  -2.040432
H    9.468303  -2.059461  -0.026985
H    9.792089   2.226834  -3.089457
H    9.400291   2.129891   0.258496

