%chk=mol_0353.chk
# wB97XD/Def2SVP opt pop=full gfinput

C 5 H 9 N 1

1 2
C    1.718630   0.224481   0.632340
C    4.545415   0.048283   0.044163
C    4.932828  -1.346052  -2.463787
C    5.720938   2.707637   0.000000
C    8.446490   2.642329  -0.114839
N   10.619033   2.590266  -0.206396
H    1.403972   1.137634   2.462162
H    0.865910  -1.659482   0.715110
H    0.717812   1.318273  -0.811600
H    5.440503  -1.068791   1.546835
H    4.099232  -0.296952  -4.040896
H    4.048436  -3.216257  -2.403939
H    6.941871  -1.623672  -2.867659
H    5.152187   3.733532   1.709484
H    4.967731   3.783893  -1.603187

