%chk=mol_5621.chk
# wB97XD/Def2SVP opt pop=full gfinput

C 4 H 4 N 2 O 1

1 2
N    1.889726   0.000000   0.000000
C    4.064820   0.000000   0.000000
C    6.793584   0.000000   0.000000
C    7.885052  -2.275306  -1.338380
C    8.458755  -1.087878  -3.801562
N    8.450081   1.343841  -3.827338
O    7.771895   2.144367  -1.359828
H    7.497413   0.097793   1.943602
H    6.607182  -3.883727  -1.534514
H    9.670012  -2.902714  -0.505199
H    8.960363  -2.247300  -5.451614

