%chk=mol_4639.chk
# wB97XD/Def2SVP opt pop=full gfinput

C 5 H 8 N 2

1 2
C   -2.897498   1.111442   0.330097
C   -2.496385  -1.518849  -0.748483
C   -0.524097  -2.692916   0.892669
N    1.812493  -1.987293   1.033775
N    2.776499  -0.298350  -0.724445
C    1.692609   1.841103  -1.235635
C   -0.783424   2.932798  -0.359898
H   -4.703075   1.879351  -0.336617
H   -3.046427   1.022115   2.399385
H   -1.917014  -1.497211  -2.732317
H   -4.225352  -2.643235  -0.582905
H   -1.174881  -4.150217   2.231124
H    2.788404   3.093709  -2.496196
H   -0.415872   4.274749   1.172292
H   -1.450894   4.079370  -1.959249

