%chk=mol_6681.chk
# wB97XD/Def2SVP opt pop=full gfinput

C 4 H 3 N 1 O 1 S 1

1 2
O    4.989916  -2.221335   0.167014
C    4.050628  -0.106618  -0.010507
C    5.390784   2.257845   0.030122
C    4.492522   4.700127  -0.156261
C    6.537205   6.447727  -0.020768
N    8.842142   5.483664   0.247913
S    8.598878   2.354259   0.347237
H    1.983041   0.072471  -0.224424
H    2.526413   5.216362  -0.373353
H    6.384043   8.486363  -0.116653

