%chk=mol_3273.chk
# wB97XD/Def2SVP opt pop=full gfinput

C 5 H 8 O 2

1 2
C    5.452143   4.915537  -5.927938
C    3.878757   4.872735  -3.950151
O    4.402287   5.136049  -1.438233
C    6.986639   5.449535  -0.688673
O    7.947281   7.889021  -1.335281
C   10.369608   8.438005  -0.634135
C   12.046645   6.998639   0.592316
H    4.713903   4.682515  -7.827586
H    7.469615   5.210977  -5.746789
H    1.859056   4.610100  -4.189013
H    8.146609   3.935014  -1.504071
H    7.006311   5.245086   1.372470
H   10.821328  10.346912  -1.235446
H   11.654943   5.090733   1.219440
H   13.914564   7.742076   1.008056

