%chk=mol_1623.chk
# wB97XD/Def2SVP opt pop=full gfinput

C 6 H 11 N 1

1 2
C    2.023746   0.365416  -0.449906
N    4.720309   0.256247   0.110851
C    6.098184  -1.528089  -1.459700
C    6.299383   1.294897  -1.907395
C    8.632307   2.624678  -1.175599
C    8.326662   4.786223   0.653675
C   10.924923   2.060501  -2.118742
H    1.271597   2.205084   0.123531
H    1.031356  -1.084835   0.641090
H    1.553941   0.084376  -2.448707
H    5.061801  -2.657201  -2.817638
H    7.646966  -2.501147  -0.538440
H    5.360019   2.068797  -3.560622
H    6.910067   6.123771  -0.046506
H   10.091100   5.834813   0.926060
H    7.717774   4.093166   2.505645
H   11.170775   0.533507  -3.465777
H   12.604606   3.096203  -1.561575

