%chk=mol_1461.chk
# wB97XD/Def2SVP opt pop=full gfinput

C 6 H 13 N 1

1 2
C    5.584027  -1.826893  -1.331218
C    4.601181   0.543844  -0.031899
N    6.564984   2.487069  -0.003080
C    6.581538   4.327605  -2.065546
C    4.856539   4.274523  -4.286598
C    5.592701   5.014256   0.532185
C    7.083412   6.713838   2.208542
H    4.148440  -3.315052  -1.271257
H    7.279792  -2.546557  -0.389076
H    6.046727  -1.468242  -3.314164
H    4.133625   0.064837   1.930601
H    2.824800   1.133741  -0.919144
H    8.455523   4.965406  -2.601340
H    2.859987   4.148932  -3.763957
H    5.317482   2.685546  -5.527014
H    5.087029   6.013241  -5.383811
H    3.575475   5.247808   0.799146
H    9.125318   6.462051   1.971721
H    6.617632   6.348629   4.191451
H    6.630709   8.690434   1.797337

