%chk=mol_5251.chk
# wB97XD/Def2SVP opt pop=full gfinput

C 4 H 6 N 2 O 1

1 2
C    2.540189  -0.077082   0.091576
N    4.286806   1.457489   1.583024
N    5.824986   2.938260  -0.022544
C    8.256686   2.170105  -0.602728
O    9.206065   0.168488   0.069561
C    9.706182   3.932388  -2.107423
C   10.913697   5.395622  -3.354245
H    1.368294  -1.216266   1.358524
H    3.554140  -1.362663  -1.174351
H    1.279477   1.117886  -1.032339
H    5.461365   0.246458   2.551319
H    5.240645   4.702810  -0.507656
H   12.007604   6.675987  -4.456787

