%chk=mol_2815.chk
# wB97XD/Def2SVP opt pop=full gfinput

C 6 H 8 O 1

1 2
C    1.889726   0.000000   0.000000
C    4.618491   0.000000   0.000000
C    6.867567   0.000000   0.000000
C    9.524522   0.000000   0.000000
C   10.750974  -2.217291  -0.143695
C   10.923071   2.483913   0.093107
O   10.722873   3.584678   2.536277
H    1.145231   1.929184   0.022715
H    1.145155  -0.984188   1.659369
H    1.145117  -0.944920  -1.682026
H    9.742824  -4.003517  -0.230131
H   12.800230  -2.305409  -0.157282
H   10.148907   3.809990  -1.294179
H   12.934457   2.249076  -0.330608
H    8.969925   3.414622   3.061526

