%chk=mol_3478.chk
# wB97XD/Def2SVP opt pop=full gfinput

C 5 H 10 O 2

1 2
C    7.693491  -0.788261   3.988229
O    9.228270  -0.159531   1.876687
C    8.818540   2.374819   1.061270
O    9.703176   4.212010   2.827635
C   12.308731   3.967499   3.437865
C    9.968192   2.835629  -1.504846
C   11.334955   1.201412  -2.878450
H    8.002650  -2.779976   4.440346
H    5.690381  -0.520449   3.552439
H    8.220857   0.341738   5.637129
H    6.778126   2.679027   0.847561
H   12.753289   5.367332   4.891651
H   13.501961   4.356688   1.796468
H   12.732068   2.094818   4.202978
H    9.619235   4.708536  -2.274115
H   11.743117  -0.689467  -2.192857
H   12.081264   1.731292  -4.712769

