%chk=mol_3743.chk
# wB97XD/Def2SVP opt pop=full gfinput

C 7 H 14

1 2
C    1.621328   1.942128  -2.489563
C    4.495035   1.972194  -2.444153
C    5.505075   3.150665  -0.004875
C    8.346694   3.152252   0.023886
C    9.925579   5.148748   0.058752
C    9.139434   7.879289   0.053763
C   12.747261   4.757064   0.098115
H    0.942728   1.080640  -4.242492
H    0.859769   3.861504  -2.380677
H    0.867158   0.851057  -0.903176
H    5.187638   3.033388  -4.086022
H    5.193232   0.028988  -2.638549
H    4.845334   2.048690   1.621536
H    4.718684   5.045569   0.224348
H    9.174432   1.263093   0.036358
H    7.096829   8.155926  -0.033977
H    9.956627   8.850211  -1.582154
H    9.819168   8.815440   1.769823
H   13.264555   2.753539   0.089422
H   13.564548   5.609387   1.797867
H   13.615685   5.635069  -1.561707

