%chk=mol_5045.chk
# wB97XD/Def2SVP opt pop=full gfinput

C 5 H 11 N 1 O 1

1 2
C    2.567911  -0.035905  -1.416482
N    5.317803   0.066651  -1.456431
C    6.270811   1.741534   0.518446
C    9.094382   1.685541   0.385466
C   10.517989   3.565479  -1.217381
C   10.604878   3.761349   1.614242
O   12.940769   3.025962   2.776272
H    1.908397  -1.350965  -2.868453
H    1.736356   1.816310  -1.807788
H    1.868712  -0.720893   0.405649
H    5.903939   0.719929  -3.170828
H    5.677361   1.072382   2.387329
H    5.547896   3.668110   0.259214
H    9.823117  -0.223895   0.528311
H    9.463162   5.000083  -2.230160
H   12.192664   2.919873  -2.202646
H    9.588168   5.319409   2.478791
H   13.619766   1.475441   2.062579

