%chk=mol_4386.chk
# wB97XD/Def2SVP opt pop=full gfinput

C 4 H 6 N 2 O 1

1 2
C    1.889726   0.000000   0.000000
C    4.618491   0.000000   0.000000
C    6.867567   0.000000   0.000000
C    9.585088   0.001852   0.005990
N   10.606674  -2.205972  -0.150195
N   10.839696   2.248566   0.179637
O   13.322740   1.970304   1.068716
H    1.145098   1.929146   0.022072
H    1.145098  -0.983697   1.659652
H    1.145098  -0.945468  -1.681724
H    9.238871  -3.575759  -0.264581
H    9.883589   3.713010   0.974948
H   13.750215   0.233211   0.555844

