%chk=mol_6343.chk
# wB97XD/Def2SVP opt pop=full gfinput

C 4 H 6 N 2 O 1

1 2
O    1.946380   0.180790  -0.637253
N    4.473152  -0.040535   0.124382
C    5.565980   2.146918   0.180563
C    8.320237   2.429810   0.978330
N    8.683027   5.150316   0.617014
C    6.415979   6.258735  -0.026343
C    4.487760   4.671346  -0.411242
H    1.376779  -1.572177  -0.628372
H    9.561031   1.334128  -0.256039
H    8.553278   1.886022   2.958215
H    9.682768   6.073674   1.974065
H    6.336384   8.300074  -0.170416
H    2.564925   5.056170  -0.926589

