%chk=mol_3879.chk
# wB97XD/Def2SVP opt pop=full gfinput

C 4 H 6 N 2 O 1

1 2
C    1.328553  -2.254954   1.010096
O   -0.852833  -2.719996  -0.525268
N   -2.930342  -1.103241  -0.017385
C   -2.389615   1.281612   0.209117
C    0.208966   2.297132   0.340302
N    1.921606   1.721881  -1.758409
C    2.256428   0.383879   0.646362
H    2.791900  -3.604898   0.450208
H    0.849640  -2.611148   2.993893
H   -3.950170   2.638341   0.446410
H    0.431765   4.127237   1.227207
H    3.248685   3.103856  -1.967829
H    3.907462   0.835675   1.758371

