%chk=mol_5701.chk
# wB97XD/Def2SVP opt pop=full gfinput

C 5 H 9 N 1 O 1

1 2
N    4.255021  -0.892650   2.529172
C    4.325772   0.129465  -0.028478
C    5.478448   2.740708  -0.040610
C    4.025778   4.798582  -0.370065
C    8.249977   2.862765   0.298029
C    9.920533   2.367184  -1.962254
O    9.782148   4.812641  -0.819366
H    3.352318  -2.592855   2.496101
H    3.160869   0.262162   3.617465
H    2.405281   0.160589  -0.802680
H    5.433095  -1.130926  -1.240171
H    1.995910   4.671063  -0.617487
H    4.860262   6.673851  -0.389662
H    8.886909   2.147844   2.112090
H    9.073463   2.151151  -3.811294
H   11.631642   1.284579  -1.675148

