%chk=mol_1102.chk
# wB97XD/Def2SVP opt pop=full gfinput

C 4 H 5 N 1 O 1

1 2
N    4.559380  -1.268838   2.325478
C    4.330686  -0.083809   0.042160
O    2.837991  -0.877645  -1.545947
C    5.877464   2.305050  -0.306362
C    8.589995   1.918167   0.182415
C   10.807514   1.622349   0.568581
H    6.009461  -0.889645   3.510941
H    3.622265  -2.921195   2.541096
H    5.110557   3.753261   0.958677
H    5.607554   2.968684  -2.249171
H   12.780086   1.367047   0.889475

