%chk=mol_4023.chk
# wB97XD/Def2SVP opt pop=full gfinput

C 4 H 8 N 2 O 1

1 2
C    1.876101  -0.151480   0.373032
C    4.680965   0.168186  -0.111418
C    6.110788   2.158955   1.487177
N    7.167996   0.040024   2.961106
N    9.698018   0.081806   3.759289
C    6.422027  -1.746012   1.217910
O    7.114913  -3.901056   0.880234
H    1.160575  -1.842710  -0.579636
H    0.827606   1.476708  -0.354626
H    1.458472  -0.328038   2.392185
H    5.088163   0.322860  -2.138395
H    4.934755   3.414622   2.631784
H    7.536681   3.252351   0.461093
H   10.488585  -1.619760   3.257661
H    9.688550   0.058619   5.689285

