%chk=mol_6696.chk
# wB97XD/Def2SVP opt pop=full gfinput

C 3 H 2 O 3 S 1

1 2
O    5.141756  -1.885947  -0.303225
C    4.035359   0.129257   0.022488
S    5.682633   2.994649   0.148929
O    5.300115   4.410489  -2.153419
O    5.587221   4.025324   2.676003
C    8.977163   2.369301  -0.094430
C   11.205339   1.955413  -0.257494
H    1.973346   0.248953   0.251371
H   13.179894   1.593871  -0.402058

