%chk=mol_0653.chk
# wB97XD/Def2SVP opt pop=full gfinput

C 5 H 8 O 1

1 2
C    1.831296   0.064213  -0.137345
C    4.688486  -0.021940   0.152501
O    5.373796  -2.304200   1.472834
C    6.398991  -1.631533   3.898052
C    6.664289   1.153564   3.858670
C    5.688662   2.075429   1.731405
H    1.175410  -1.558722  -1.242646
H    1.215925   1.798868  -1.081906
H    0.883825  -0.057561   1.702095
H    5.603435  -0.052950  -1.703361
H    8.217795  -2.582141   4.138236
H    5.092113  -2.254311   5.374173
H    7.509262   2.252535   5.356448
H    5.618572   4.046735   1.210275

