%chk=mol_3994.chk
# wB97XD/Def2SVP opt pop=full gfinput

C 5 H 11 N 1 O 1

1 2
C    1.817104   0.052364   0.134700
C    4.691642   0.011376  -0.141862
C    5.703761  -2.533442  -1.147593
N    5.089713  -2.955947  -3.828113
C    6.019968  -0.789093  -5.302779
C    4.995605   1.733087  -4.302320
O    5.563127   2.082006  -1.674675
H    1.182364   1.921436   0.759122
H    1.193721  -1.352666   1.519869
H    0.850018  -0.345064  -1.649712
H    5.499651   0.320441   1.740438
H    4.941898  -4.094999  -0.021713
H    7.766037  -2.570651  -0.931635
H    5.971988  -4.558775  -4.434091
H    8.091353  -0.767909  -5.233672
H    5.465126  -1.024780  -7.281738
H    5.879221   3.295002  -5.331843
H    2.953491   1.890576  -4.600236

