%chk=mol_1008.chk
# wB97XD/Def2SVP opt pop=full gfinput

C 4 H 11 N 1 O 1

1 2
C    1.952030  -0.239617   0.103198
C    4.827060  -0.275730   0.055993
N    5.788968   2.302367  -0.242773
C    8.566015   2.419435  -0.036585
C    9.897195   1.297826  -2.356186
O    8.836170   2.346208  -4.600992
H    1.218647  -2.166174   0.282042
H    1.183403   0.575629  -1.637504
H    1.241493   0.861980   1.705364
H    5.443734  -1.470207  -1.516467
H    5.517207  -1.114334   1.819391
H    5.034589   3.409671   1.147234
H    9.238871   1.528486   1.708029
H    9.065980   4.427458   0.070317
H    9.683467  -0.757364  -2.434761
H   11.915045   1.737584  -2.320168
H    7.047526   2.596068  -4.194738

