%chk=mol_3230.chk
# wB97XD/Def2SVP opt pop=full gfinput

C 5 H 6 O 2

1 2
C    4.197195  -1.814062  -0.851662
C    6.638532  -0.510339  -0.197987
O    8.554733  -1.695047   0.360843
C    6.646412   2.293787  -0.327716
C    8.747259   3.567482   0.275106
C    8.760449   6.354790   0.139348
O    6.923314   7.600497  -0.512267
H    2.592288  -0.779607  -0.060755
H    4.194550  -3.712461  -0.034223
H    4.012361  -1.948251  -2.903885
H    4.922945   3.230260  -0.919408
H   10.480383   2.650681   0.869104
H   10.567821   7.242754   0.674405

