%chk=mol_5049.chk
# wB97XD/Def2SVP opt pop=full gfinput

C 7 H 14

1 2
C    1.854917   5.334886  -1.094964
C    4.651070   5.460439  -0.441988
C    5.872267   2.841430  -0.506617
C    8.670933   2.923841   0.118845
C    9.285453   3.298744   2.877486
C   10.412372   1.211598  -1.376514
C   10.465946   4.012229  -1.826326
H    1.025479   7.228902  -1.058643
H    0.831272   4.159174   0.263919
H    1.569399   4.545283  -2.984728
H    4.866045   6.312781   1.433754
H    5.604625   6.721359  -1.782749
H    5.587391   2.015090  -2.386630
H    4.915404   1.584025   0.834352
H   11.327907   3.311178   3.215671
H    8.468959   1.770749   4.007448
H    8.530337   5.095685   3.564383
H    9.614757   0.022110  -2.844208
H   12.018847   0.364131  -0.427097
H   12.102845   5.058646  -1.174465
H    9.701551   4.707270  -3.596338

