%chk=mol_6350.chk
# wB97XD/Def2SVP opt pop=full gfinput

C 4 H 8 N 2 O 1

1 2
O    1.325851   3.027663  -0.464759
N    3.737670   2.500996  -1.419619
C    5.387288   2.896289   0.342853
C    8.240718   2.461066  -0.163140
C    9.703347   4.522833  -1.622443
C   11.811356   4.042483   0.309934
N    9.854695   3.091063   2.069099
H    0.245438   2.717370  -1.926198
H    4.831557   3.534317   2.252610
H    8.610330   0.550137  -0.886905
H    8.866917   6.414449  -1.516600
H   10.166481   4.089746  -3.588382
H   13.182578   2.600887  -0.268001
H   12.826044   5.718425   0.965008
H   10.398010   1.569229   3.117954

