%chk=mol_3116.chk
# wB97XD/Def2SVP opt pop=full gfinput

C 5 H 10 O 2

1 2
C    1.721578  -0.778510   0.173042
C    4.402779   0.033996  -0.502327
C    5.351062  -1.463328  -2.787403
O    7.949757  -0.937380  -3.245189
C    4.507488   2.868831  -1.036666
C    3.734420   4.634856   1.062952
O    5.264569   3.711762  -3.073734
H    1.086838   0.113705   1.929146
H    1.613410  -2.827276   0.446599
H    0.380837  -0.251315  -1.314890
H    5.674621  -0.314696   1.096910
H    4.278265  -1.034587  -4.505599
H    5.194763  -3.495389  -2.432985
H    8.009321   0.801943  -3.876887
H    1.692703   4.548042   1.342537
H    4.254397   6.570559   0.560927
H    4.722747   4.123193   2.801481

