%chk=mol_1147.chk
# wB97XD/Def2SVP opt pop=full gfinput

C 4 H 5 N 1 S 1

1 2
C    1.665397   0.151235  -0.014929
C    4.470279   0.068673  -0.000661
C    6.189968   2.030076   0.006935
N    8.705931   1.334959   0.019710
C    8.865877  -1.144380   0.021392
S    6.056062  -2.758906   0.007786
H    0.983697   2.105344   0.000094
H    0.892726  -0.800488   1.651866
H    0.911566  -0.768495  -1.708237
H    5.711112   4.021016   0.003685
H   10.661476  -2.122748   0.030746

