%chk=mol_5738.chk
# wB97XD/Def2SVP opt pop=full gfinput

C 6 H 9 N 1

1 2
C    1.834471  -0.024925   0.022544
C    4.699239   0.006992   0.043728
C    5.956285   1.977598   1.809583
C    8.019695  -0.013606   2.334568
C    6.033461  -2.062598   1.666190
C    6.975924  -4.225125   0.289903
N    7.730983  -5.964183  -0.813584
H    1.133458  -1.633498  -1.073516
H    1.094586   1.703399  -0.841174
H    1.056943  -0.167052   1.934966
H    5.438972   0.132678  -1.895584
H    4.839626   2.472026   3.482992
H    6.603289   3.714389   0.897847
H    9.628608   0.105220   1.032584
H    8.734503  -0.055917   4.273087
H    4.919089  -2.620389   3.328205

