%chk=mol_1875.chk
# wB97XD/Def2SVP opt pop=full gfinput

C 6 H 9 N 1

1 2
N    3.114779   0.956636   1.983910
C    5.132345   0.052931   0.303244
C    6.428244   1.994152  -1.339665
C    7.859447   0.799921   0.798107
C    9.334510  -1.512367   0.344743
C    7.927893  -3.502267  -0.345895
C    5.175714  -2.744411  -0.461452
H    1.639848   1.648880   0.954633
H    2.399725  -0.487247   3.046862
H    5.899366   3.963776  -1.130321
H    6.910445   1.480827  -3.263538
H    8.290474   1.891673   2.471686
H   11.371465  -1.556775   0.559586
H    8.631041  -5.372510  -0.769270
H    4.419748  -2.991890  -2.370246
H    4.082489  -3.903173   0.857633

