%chk=mol_5619.chk
# wB97XD/Def2SVP opt pop=full gfinput

C 4 H 6 N 2 O 1

1 2
N    3.836314  -0.767550  -2.365465
C    4.927480  -0.023263   0.058884
C    5.519304   2.710377   0.098228
C    4.171041   4.867122  -0.430385
C    5.898856   6.832531   0.013682
N    8.146137   5.968322   0.770763
O    7.902154   3.361313   0.823354
H    3.555917  -2.671676  -2.359796
H    5.133120  -0.428647  -3.750502
H    6.632674  -1.142925   0.411072
H    3.579406  -0.453515   1.569455
H    2.231559   4.978502  -1.054751
H    5.628493   8.847679  -0.176595

