%chk=mol_4942.chk
# wB97XD/Def2SVP opt pop=full gfinput

C 4 H 7 N 1 O 2

1 2
C    2.400254  -0.492878   0.860581
C    5.157554   0.109793   0.323578
O    5.596537  -0.260366  -2.312949
N    8.207591  -0.433484  -2.756317
C    8.571401  -0.711879  -5.151772
C    5.806675   2.822571   0.994431
O    4.414910   4.273370   2.159900
H    1.937631  -0.211007   2.857152
H    1.976219  -2.454395   0.354059
H    1.144248   0.703337  -0.271591
H    6.372175  -1.149426   1.433886
H   10.507387  -0.872713  -5.895416
H    7.013964  -0.791871  -6.534729
H    7.730378   3.428568   0.465817

