%chk=mol_5888.chk
# wB97XD/Def2SVP opt pop=full gfinput

C 4 H 6 N 2 O 1

1 2
N    1.774339  -0.327301  -0.128067
N    4.440044  -0.195983  -0.096622
C    5.843165   1.954657   0.074474
C    8.352495   1.244479   0.151159
C    8.433092  -1.433773   0.014948
C    5.980435  -2.277876  -0.158964
O    5.047628  -4.605527  -0.351054
H    1.025025   1.187882  -1.048307
H    1.088898  -0.237614   1.668931
H    4.974175   3.801335   0.135418
H    9.952678   2.513808   0.291849
H   10.099036  -2.624282   0.033202
H    3.220226  -4.394067  -0.540859

