%chk=mol_2379.chk
# wB97XD/Def2SVP opt pop=full gfinput

C 6 H 8 O 1

1 2
C    1.765666  -0.162554  -0.166598
C    4.634402   0.010186   0.009845
C    5.902163  -2.315274  -1.016540
C    7.455234  -1.613467  -2.870966
O    7.463417   0.956542  -3.339278
C    5.761322   2.049899  -1.655551
C    5.275927   4.527841  -1.653321
H    0.876568   1.526483   0.635156
H    1.060382  -1.801041   0.884826
H    1.121212  -0.343987  -2.127227
H    5.219839   0.290734   1.976937
H    5.618250  -4.217887  -0.343722
H    8.688110  -2.727631  -4.040858
H    6.221678   5.774002  -2.978284
H    3.935449   5.353745  -0.343817

