%chk=mol_2627.chk
# wB97XD/Def2SVP opt pop=full gfinput

C 6 H 10 O 1

1 2
C    4.352701  -0.868291  -2.850179
C    4.522776   0.120640  -0.158529
C    6.145937   2.495913  -0.049662
C    5.003485   4.952254  -1.211031
C    5.978583   6.325537   1.168285
O    6.384515   8.517921   1.696634
C    6.288234   3.798728   2.588774
H    3.220887  -2.598090  -2.910745
H    6.231769  -1.297977  -3.602423
H    3.472050   0.522150  -4.103351
H    5.351289  -1.344200   1.048817
H    2.617214   0.500437   0.559189
H    8.052312   2.116153  -0.789339
H    2.942606   4.996795  -1.371318
H    5.868620   5.571744  -2.978813
H    8.085628   3.581768   3.579009
H    4.716473   3.405967   3.872918

