%chk=mol_5473.chk
# wB97XD/Def2SVP opt pop=full gfinput

C 5 H 9 N 1 O 1

1 2
N    2.693408  -0.725201  -0.668094
C    5.259335   0.007691   0.053045
C    6.988151  -2.000483   1.105263
C    7.509431  -0.874282  -1.432469
O    9.308678   1.186465  -1.562444
C    7.986549   3.472844  -0.928101
C    5.768200   2.708960   0.762542
H    1.970115   0.477836  -1.986291
H    1.509986  -0.647647   0.848808
H    6.317581  -3.933881   1.156758
H    8.249883  -1.522533   2.645503
H    7.215957  -2.027771  -3.097450
H    9.269182   4.790380   0.014608
H    7.317076   4.326982  -2.690346
H    6.307528   2.828712   2.759718
H    4.152409   3.967782   0.470712

