%chk=mol_4931.chk
# wB97XD/Def2SVP opt pop=full gfinput

C 4 H 6 N 2 O 1

1 2
C    2.071688  -0.364698   0.419198
C    4.708876  -0.418555  -0.640390
O    5.391219  -1.987425  -2.203043
N    6.292240   1.398643   0.315830
C    8.927425   1.461949  -0.444369
C   10.263064   3.653370   0.620057
N   11.270062   5.389594   1.503655
H    1.670423   1.429124   1.363589
H    1.856958  -1.906072   1.777476
H    0.717302  -0.599402  -1.123763
H    5.724755   2.469305   1.798301
H    9.009572   1.493847  -2.512561
H    9.809852  -0.299692   0.191221

