%chk=mol_1467.chk
# wB97XD/Def2SVP opt pop=full gfinput

C 6 H 13 N 1

1 2
C    4.201523  -0.940687  -2.554532
C    4.465763   0.257778   0.050380
N    6.237419   2.382642  -0.029196
C    5.019472   4.693419  -1.051198
C    6.290898   6.200664   1.107625
C    8.818199   7.427380   0.498113
C    6.392320   3.621811   2.482099
H    2.958631  -2.591060  -2.451976
H    6.035615  -1.571666  -3.275028
H    3.386748   0.382991  -3.919311
H    5.205647  -1.181287   1.346222
H    2.591835   0.798523   0.758366
H    2.948067   4.741153  -0.970431
H    5.611107   5.198977  -2.967966
H    5.028316   7.571849   2.014429
H   10.124775   6.106801  -0.410392
H    9.715101   8.126692   2.226192
H    8.549594   9.037010  -0.773446
H    8.132096   3.227104   3.527438
H    4.779514   3.304677   3.746741

