%chk=mol_5800.chk
# wB97XD/Def2SVP opt pop=full gfinput

C 4 H 6 N 2 O 1

1 2
N    3.207753   2.891281  -3.786936
C    4.839305   3.742092  -2.149223
C    5.750210   6.446366  -2.653553
O    7.311861   7.526477  -1.345296
N    5.593438   2.211925  -0.162403
C    8.221783   2.303538   0.711709
C    6.133654   3.338012   2.308660
H    2.772209   1.084363  -3.218714
H    4.859998   7.328037  -4.317268
H    9.473764   3.576496  -0.274880
H    8.973856   0.459336   1.164222
H    5.444679   2.208485   3.868043
H    5.884928   5.358224   2.476807

