%chk=mol_3189.chk
# wB97XD/Def2SVP opt pop=full gfinput

C 6 H 10 O 1

1 2
C    7.918444  -1.831164  -0.894974
C    5.544721  -0.413245  -0.085019
O    4.742551  -1.386133   2.293731
C    5.779482   2.405508   0.199631
C    7.861809   3.802790  -0.161269
C    7.912264   6.509842   0.163424
C   10.009313   7.883238  -0.173345
H    8.565580  -1.222275  -2.762817
H    7.548794  -3.866625  -0.963874
H    9.457210  -1.565695   0.465742
H    4.038345  -0.811127  -1.448192
H    5.999937  -0.872827   3.532711
H    4.024663   3.335650   0.751809
H    9.626983   2.912975  -0.720666
H    6.171317   7.457218   0.707702
H   11.797012   7.033391  -0.713787
H    9.979398   9.914902   0.091104

