%chk=mol_0620.chk
# wB97XD/Def2SVP opt pop=full gfinput

C 5 H 10 O 1

1 2
C    1.864479  -0.135569   0.311654
C    4.659479   0.244323  -0.159663
C    6.028548   2.180347   1.506509
C    7.821047  -0.012151   2.126112
C   10.385671   0.004724   0.844481
O    6.133465  -1.807032   0.911831
H    1.162408  -1.770012  -0.745629
H    0.791757   1.523894  -0.302772
H    1.463102  -0.452060   2.317730
H    5.084743   0.445994  -2.178911
H    4.949930   2.872762   3.127629
H    6.862522   3.776485   0.494900
H    7.965933  -0.401378   4.156358
H   10.216237   0.270401  -1.199730
H   11.375017  -1.780330   1.176921
H   11.559757   1.532889   1.593341

