%chk=mol_2977.chk
# wB97XD/Def2SVP opt pop=full gfinput

C 5 H 8 O 2

1 2
C    1.045831   0.525249  -0.112306
C    3.758004   0.142618   0.575894
C    5.662035   1.545758  -0.352585
C    8.391896   1.167718   0.283591
O    9.716461   0.812582  -2.019966
C    9.344525   3.485430   1.713169
O   11.139539   4.767968   0.976346
H    0.317776  -1.157590  -1.068697
H    0.775997   2.149677  -1.362266
H   -0.074814   0.837470   1.597726
H    4.152711  -1.398624   1.877670
H    5.251171   3.049224  -1.694858
H    8.702454  -0.489175   1.481054
H   11.184779   1.932321  -1.946909
H    8.390988   3.894480   3.521316

