%chk=mol_0364.chk
# wB97XD/Def2SVP opt pop=full gfinput

C 5 H 13 N 1

1 2
C    1.810698  -0.218755   0.005518
C    4.677998   0.061416   0.014286
C    5.672996   2.808360  -0.020541
C    4.850360   4.218114  -2.416884
C    4.832994   4.286598   2.330070
N    8.451346   2.681559  -0.030878
H    1.304119  -2.223508   0.033467
H    0.969127   0.610684  -1.689226
H    0.954860   0.660856   1.668383
H    5.424516  -0.968126  -1.628660
H    5.408510  -0.922829   1.691135
H    5.387496   3.179275  -4.126765
H    5.721051   6.096389  -2.524939
H    2.800574   4.501989  -2.466338
H    5.354407   3.295361   4.072719
H    2.783359   4.574933   2.354391
H    5.707105   6.165137   2.391770
H    9.072310   1.828877   1.581417
H    9.190248   4.459414  -0.012586

