%chk=mol_3038.chk
# wB97XD/Def2SVP opt pop=full gfinput

C 5 H 10 O 2

1 2
C    2.826823  -0.151462   0.803153
C    5.215361   0.096716  -0.798825
C    4.881238  -1.262432  -3.338730
O    7.248744  -1.532927  -4.595020
C    5.809736   2.852750  -1.214281
C    7.784292   4.191243   0.340642
O    8.304817   3.317830  -2.173374
H    3.052853   0.823826   2.615702
H    2.401653  -2.138527   1.195082
H    1.188184   0.680925  -0.153691
H    6.788388  -0.791039   0.222194
H    3.596886  -0.232739  -4.594226
H    4.122645  -3.166463  -3.060411
H    8.107435   0.099192  -4.494430
H    4.274353   3.935922  -2.023311
H    8.675790   3.196623   1.890879
H    7.599761   6.211000   0.616958

