%chk=mol_5853.chk
# wB97XD/Def2SVP opt pop=full gfinput

C 5 H 5 N 1 O 1

1 2
N    2.460064  -0.281342  -1.602790
C    4.787243  -0.276656  -0.517690
O    5.680346  -2.162943   0.473376
C    6.096464   2.184618  -0.655546
C    8.405993   2.424745   0.349240
C    9.728575   4.759181   0.256228
C   10.853907   6.725403   0.183190
H    1.663280   1.237071  -2.437029
H    1.478352  -1.921719  -1.561915
H    5.152112   3.749179  -1.572309
H    9.330503   0.833766   1.264775
H   11.860413   8.467957   0.122757

