%chk=mol_1079.chk
# wB97XD/Def2SVP opt pop=full gfinput

C 4 H 9 N 1 O 1

1 2
N    1.561273   0.397693  -0.390833
C    4.294063   0.162932   0.171304
C    4.946472   0.124438   2.971084
O    3.269737  -1.565808   4.223292
C    5.855373  -1.459927  -1.581795
C    6.146542   1.363418  -1.631816
H    1.222407   0.141692  -2.272037
H    0.962041   2.191421  -0.002192
H    4.691963   2.009365   3.782684
H    6.888997  -0.488589   3.323140
H    1.747449  -1.563257   3.172264
H    4.935643  -2.368148  -3.170753
H    7.377189  -2.574884  -0.780192
H    7.878438   2.154874  -0.873772
H    5.433189   2.368980  -3.267223

