%chk=mol_2141.chk
# wB97XD/Def2SVP opt pop=full gfinput

C 5 H 4 N 2

1 2
N    1.967583  -0.094940  -0.000246
N    4.492408   0.048963  -0.000000
C    5.611410   2.231578   0.000000
C    4.213806   4.565881  -0.000038
C    3.076323   6.530629  -0.000019
C    8.319463   2.056098   0.000019
C   10.586945   1.919187   0.000000
H    1.158308  -1.831371   0.000132
H    0.824922   1.441294   0.000113
H    2.074787   8.278002  -0.000000
H   12.594496   1.781029  -0.000000

