%chk=mol_1983.chk
# wB97XD/Def2SVP opt pop=full gfinput

C 5 H 8 N 2

1 2
N    1.889726   0.000000   0.000000
C    4.064820   0.000000   0.000000
C    6.793584   0.000000   0.000000
C    7.860146   2.167478   1.565147
C   10.522052   1.290097   2.142874
C   10.263310  -1.552807   2.432739
N    7.885941  -2.265177   1.213677
H    7.521866   0.129408  -1.937007
H    6.804658   2.431907   3.332078
H    7.843894   3.966592   0.542503
H   11.766909   1.726794   0.545658
H   11.294685   2.192441   3.833952
H   11.877174  -2.542608   1.594551
H   10.164837  -2.075070   4.430312
H    8.138332  -3.671077  -0.076307

