%chk=mol_3732.chk
# wB97XD/Def2SVP opt pop=full gfinput

C 7 H 14

1 2
C    2.181916   6.377070  -2.309075
C    4.500931   4.680757  -2.285302
C    6.048635   5.043188   0.127330
C    8.333976   3.357684   0.145773
C   10.720133   4.209894   0.249293
C   13.003074   2.524050   0.284914
C   14.710743   3.024771  -1.970058
H    1.094416   6.080269  -4.043957
H    2.721432   8.373282  -2.224246
H    0.946375   5.969172  -0.699690
H    5.665229   5.102109  -3.946372
H    3.894952   2.706428  -2.451712
H    4.886832   4.589710   1.782446
H    6.603364   7.032238   0.308630
H    7.977290   1.332673   0.086190
H   11.075969   6.234263   0.330305
H   12.451386   0.527668   0.291528
H   14.055273   2.867168   2.035027
H   13.719639   2.672791  -3.753506
H   16.365784   1.785054  -1.902690
H   15.382541   4.983472  -1.982606

