%chk=mol_0700.chk
# wB97XD/Def2SVP opt pop=full gfinput

C 5 H 10 O 1

1 2
C    1.842105  -0.310728  -0.278111
C    4.703850  -0.058695  -0.078726
C    6.049731  -1.628566  -2.082932
C    5.465523   2.717596  -0.176463
C    5.476181   4.046093  -2.697697
O    6.003679   3.872068   1.774302
H    0.898338   0.853022   1.150654
H    1.257499  -2.275192   0.008220
H    1.149029   0.296177  -2.131498
H    5.295410  -0.768722   1.778346
H    5.427652  -1.130018  -3.992935
H    5.672920  -3.644261  -1.804500
H    8.097136  -1.340761  -1.992357
H    3.669697   3.772366  -3.657603
H    7.024301   3.333458  -3.862695
H    5.752439   6.074015  -2.403996

