%chk=mol_4263.chk
# wB97XD/Def2SVP opt pop=full gfinput

C 5 H 5 N 1 O 1

1 2
C    1.889726   0.000000   0.000000
C    4.138803   0.000000   0.000000
C    6.867567   0.000000   0.000000
C    8.025912  -2.309340   1.222880
O    8.583231  -1.594702   3.780303
N    8.860718   1.065919   3.842191
C    7.901096   1.913329   1.767574
H   -0.125327  -0.001795   0.015288
H    7.606884   0.299352  -1.906337
H    9.817052  -2.820549   0.317455
H    6.793433  -3.969540   1.228738
H    7.810597   3.937641   1.309278

