%chk=mol_1981.chk
# wB97XD/Def2SVP opt pop=full gfinput

C 6 H 11 N 1

1 2
N    4.618925  -0.813829  -3.001887
C    4.617905   0.037643  -0.369971
C    6.223700   2.426219   0.008220
C    6.303522   3.241485   2.796851
C    6.394455   6.129591   2.784700
C    5.295447   6.772703   0.270571
C    5.190681   4.753266  -1.247748
H    3.651858  -2.473425  -3.134904
H    6.423595  -1.184499  -3.561680
H    5.357203  -1.487082   0.821332
H    2.658504   0.380194   0.209344
H    8.151692   2.094610  -0.682248
H    7.929253   2.429677   3.788353
H    4.601918   2.610751   3.804926
H    8.334165   6.834497   2.924710
H    5.278761   6.915283   4.337545
H    4.716945   8.656722  -0.266206
H    4.523116   4.777492  -3.180069

