%chk=mol_3133.chk
# wB97XD/Def2SVP opt pop=full gfinput

C 5 H 12 O 2

1 2
C    3.319342  -3.343058  -1.474081
C    5.367711  -1.765420  -0.209684
C    5.271844   1.005788  -1.016219
O    2.907325   2.080966  -0.260555
C    7.413036   2.539867   0.191354
O    7.178786   5.103905  -0.658381
C    9.099353   6.663609   0.391268
H    3.478853  -5.320127  -0.886508
H    3.495275  -3.270228  -3.533807
H    1.429918  -2.678536  -0.957770
H    7.219888  -2.570216  -0.674179
H    5.119060  -1.910305   1.842729
H    5.375383   1.166925  -3.079195
H    3.102987   3.897825  -0.535057
H    9.257372   1.784676  -0.368912
H    7.241412   2.510615   2.255634
H    8.824227   8.590014  -0.302753
H   10.967914   6.006891  -0.202938
H    8.971513   6.680428   2.455227

