%chk=mol_2892.chk
# wB97XD/Def2SVP opt pop=full gfinput

C 5 H 8 O 2

1 2
C    3.433292  -1.194760  -1.880051
C    5.490127  -0.523851   0.011301
C    5.769787   2.290121   0.277922
C    7.891893   3.537397  -0.342966
C    8.291779   6.279598  -0.037776
O    6.184601   7.680490  -0.279358
O   10.386029   7.179391   0.311238
H    3.228710  -3.248950  -2.014391
H    3.889812  -0.473150  -3.765620
H    1.605133  -0.406650  -1.313794
H    7.272649  -1.397679  -0.581034
H    5.013576  -1.322336   1.861985
H    4.164654   3.268357   1.108211
H    9.551980   2.538280  -1.020490
H    4.723635   6.727916  -0.864663

