%chk=mol_6740.chk
# wB97XD/Def2SVP opt pop=full gfinput

C 5 H 8 N 2

1 2
C    1.756198  -0.108527  -0.061907
C    4.559588   0.105806  -0.050512
C    5.859153   2.282997  -0.020825
C    8.686844   2.328275   0.065857
N    9.791332  -0.128823  -0.532260
N    8.589146  -2.332016  -0.006217
C    6.138738  -2.208277   0.115519
H    1.136821  -2.081968  -0.086436
H    0.959338   0.818686  -1.730800
H    0.956655   0.775714   1.630380
H    4.883204   4.085663  -0.032314
H    9.388254   3.709268  -1.308012
H    9.293106   2.946159   1.947457
H   11.645079  -0.206963  -0.010847
H    5.096951  -3.984847   0.429384

