%chk=mol_3223.chk
# wB97XD/Def2SVP opt pop=full gfinput

C 6 H 10 O 1

1 2
C    1.467977   3.703069   1.272712
C    3.903777   2.230274   0.954331
O    5.830769   3.933182   0.149364
C    8.194401   2.671695  -0.195303
C   10.164383   4.596154  -1.047041
C   12.648636   3.411957  -1.432129
C   14.678675   2.452203  -1.747827
H   -0.066859   2.464883   1.890671
H    0.923320   4.604450  -0.508544
H    1.707594   5.215720   2.664287
H    3.646982   0.744004  -0.463682
H    4.443388   1.365252   2.756071
H    7.978934   1.183573  -1.622122
H    8.772883   1.792802   1.590677
H   10.305263   6.110335   0.360371
H    9.528850   5.508495  -2.795340
H   16.485178   1.605436  -2.029887

