%chk=mol_2286.chk
# wB97XD/Def2SVP opt pop=full gfinput

C 6 H 12 O 1

1 2
C    1.672143   0.053744  -0.448640
C    4.481240   0.056786   0.035848
C    5.168873  -0.060226   2.795850
C    6.166441  -1.311300  -1.833450
C    6.124886   1.538955  -1.803517
C    8.399001   3.000318  -1.002537
O    9.971461   3.387089  -3.143881
H    1.232914   0.135172  -2.469796
H    0.786976   1.687204   0.460413
H    0.811505  -1.665661   0.315735
H    7.184795  -0.406764   3.099189
H    4.138689  -1.593701   3.730130
H    4.670685   1.716514   3.732001
H    5.294200  -2.260755  -3.428379
H    7.827662  -2.281070  -1.123990
H    5.173314   2.491717  -3.353905
H    9.517115   2.039241   0.443972
H    7.838414   4.850870  -0.271176
H   10.349709   1.722126  -3.822916

