%chk=mol_4306.chk
# wB97XD/Def2SVP opt pop=full gfinput

C 5 H 11 N 1 O 1

1 2
C    4.113896  -1.050782  -2.718730
C    4.679302  -0.061605  -0.079142
C    6.168085   2.410232  -0.169962
O    8.599993   1.968717  -1.365346
C    4.693664   4.776207  -1.091506
N    5.781315   6.235813   1.030864
C    6.278748   3.843646   2.392299
H    3.022636  -2.804278  -2.605913
H    5.854712  -1.448796  -3.762596
H    3.017250   0.319704  -3.812730
H    5.750569  -1.489803   0.973190
H    2.887161   0.204412   0.927988
H    9.439106   3.601440  -1.335980
H    2.628760   4.617565  -1.005353
H    5.216608   5.482625  -2.963865
H    7.375941   7.212877   0.567693
H    8.099801   3.787465   3.371290
H    4.793555   3.349483   3.750218

