%chk=mol_6280.chk
# wB97XD/Def2SVP opt pop=full gfinput

C 4 H 4 N 2 O 1

1 2
O    5.323245  -2.016924   0.071167
C    4.204300   0.012245  -0.010601
N    5.509912   2.315141   0.006482
C    4.446545   4.694439  -0.078802
C    6.405907   6.398348  -0.023792
C    8.591073   4.897206   0.094619
N    8.071077   2.431662   0.113799
H    2.128852   0.135909  -0.101233
H    2.422534   4.947567  -0.169395
H    6.279409   8.436701  -0.063363
H   10.547356   5.495173   0.168053

