%chk=mol_6745.chk
# wB97XD/Def2SVP opt pop=full gfinput

C 5 H 10 N 2

1 2
C    1.845790   0.019105  -0.244871
C    4.687050   0.001928   0.272782
C    5.937123   2.474899  -0.534868
C    6.830944   2.325554  -3.263992
N    8.428953   0.100193  -3.480328
N    7.522868  -2.195805  -2.838123
C    5.829767  -2.258752  -1.060042
H    0.921053   1.565695   0.779323
H    0.975004  -1.755329   0.374071
H    1.436551   0.239542  -2.262682
H    4.958660  -0.274161   2.307582
H    4.658288   4.087440  -0.281172
H    7.574533   2.828542   0.692207
H    7.918160   4.023283  -3.735989
H    5.235071   2.208901  -4.575783
H    9.292482   0.031823  -5.207537
H    5.122594  -4.133795  -0.475682

