%chk=mol_1641.chk
# wB97XD/Def2SVP opt pop=full gfinput

C 6 H 11 N 1

1 2
C    2.079398   0.273859   0.444842
N    4.711692  -0.165616  -0.246156
C    5.152698  -2.804391  -1.044508
C    5.245577  -2.807226  -3.944331
C    6.061202  -0.184286  -4.623518
C    4.177901   1.930431  -4.749713
C    5.605230   1.456204  -2.344149
H    1.777703   2.267501   0.914023
H    1.592567  -0.822333   2.132329
H    0.757364  -0.248102  -1.060042
H    3.775257  -4.158758  -0.300655
H    7.010298  -3.371139  -0.319364
H    6.573148  -4.228281  -4.648046
H    3.372746  -3.204050  -4.735654
H    7.858672  -0.048264  -5.577432
H    4.684820   3.593560  -5.835304
H    2.187717   1.471001  -4.854744
H    7.059525   2.810287  -1.829784

