%chk=mol_3747.chk
# wB97XD/Def2SVP opt pop=full gfinput

C 5 H 8 O 2

1 2
O    4.153183  -2.476335  -1.581720
C    6.400710  -1.392955  -0.599535
C    5.747168   1.159668   0.398543
C    7.060263   3.272193  -0.107941
C    6.409308   5.829975   0.919957
C    8.477613   6.885954   2.603003
O   10.567273   5.936556   2.929888
H    4.597193  -4.159949  -2.164587
H    7.812808  -1.308598  -2.108972
H    7.103216  -2.596219   0.928234
H    4.097739   1.240397   1.620421
H    8.723486   3.174702  -1.315571
H    4.669456   5.772849   2.040111
H    6.122278   7.159039  -0.639294
H    7.997435   8.692816   3.529989

