%chk=mol_0512.chk
# wB97XD/Def2SVP opt pop=full gfinput

C 4 H 10 N 2

1 2
C    2.966152  -0.948926  -2.071102
N    5.511575  -0.608586  -1.068092
N    6.208695   1.818672  -0.670588
C    8.572912   2.196844  -0.114158
C   10.555953   0.151632   0.071753
C    9.421381   4.877383   0.358028
H    2.601321  -2.959651  -2.387197
H    2.755542   0.028233  -3.882348
H    1.546457  -0.227372  -0.751355
H    5.662224  -1.643306   0.556921
H   10.049734  -1.185520   1.564278
H   12.396585   0.975269   0.527139
H   10.710023  -0.841816  -1.734372
H    7.829098   6.186264   0.217319
H   10.849163   5.395905  -1.042222
H   10.241295   5.011403   2.249624

