%chk=mol_2421.chk
# wB97XD/Def2SVP opt pop=full gfinput

C 7 H 12

1 2
C    1.744727  -0.300485  -0.110398
C    4.551519   0.020126  -0.246968
C    5.894094   2.164077   0.075306
C    4.678830   4.711503   0.508128
C    8.670196   2.141230  -0.080842
C    9.889070   0.531429  -2.092002
C   10.109184   3.572471   1.447039
H    1.296749  -1.905203   1.116923
H    0.990103  -0.702090  -1.992773
H    0.761408   1.342367   0.659514
H    5.547423  -1.749603  -0.579749
H    2.718900   4.778928  -0.136438
H    5.671314   6.190554  -0.549589
H    4.713997   5.202057   2.517399
H    8.993074   0.853570  -3.930158
H    9.749380  -1.478182  -1.623256
H   11.900210   0.971546  -2.313667
H    9.307166   4.759256   2.916433
H   12.155210   3.568823   1.298374

