%chk=mol_1970.chk
# wB97XD/Def2SVP opt pop=full gfinput

C 6 H 5 N 1

1 2
N    1.889726   0.000000   0.000000
C    4.064820   0.000000   0.000000
C    6.721775   0.000000   0.000000
C    8.220781   2.049994  -0.009373
C   10.830606   1.252151  -0.003307
C   10.936583  -1.279685   0.010034
C    8.306442  -2.352728   0.013209
H    7.624950   4.002421  -0.019048
H   12.423645   2.526602  -0.008334
H   12.642910  -2.402239   0.017423
H    7.978329  -3.504214  -1.673787
H    7.975476  -3.486998   1.711525

