%chk=mol_4553.chk
# wB97XD/Def2SVP opt pop=full gfinput

C 5 H 13 N 1 O 1

1 2
C    1.819882  -0.263182  -0.029291
C    4.680871  -0.051760  -0.009297
C    5.550598   2.691915  -0.003515
O    8.246311   2.727007   0.043690
C    9.203382   5.261130   0.036132
C   12.099217   5.178511   0.056522
N   13.087865   4.031069  -2.262059
H    1.246633  -2.251004  -0.040308
H    1.020509   0.644283  -1.707991
H    0.998909   0.631528   1.645385
H    5.470058  -1.027104  -1.658745
H    5.446417  -1.028767   1.650430
H    4.819274   3.671757   1.667910
H    4.874492   3.659852  -1.704798
H    8.531036   6.245904   1.730536
H    8.517714   6.266710  -1.642134
H   12.742102   4.053519   1.670329
H   12.860153   7.091575   0.245305
H   12.145213   2.363178  -2.523200
H   14.935356   3.564874  -1.997686

