%chk=mol_0529.chk
# wB97XD/Def2SVP opt pop=full gfinput

C 4 H 10 N 2

1 2
N    1.967167   0.011679   0.282231
C    4.687126   0.038248  -0.149723
C    5.926105   2.013144   1.604378
C    7.807838  -0.045599   2.464108
N   10.054552   0.022355   0.848657
C    5.937312  -2.049843   1.459889
H    1.065711  -1.472172  -0.551668
H    1.071739   1.596838  -0.348447
H    5.281955   0.113289  -2.127681
H    4.732139   2.690554   3.162627
H    6.723495   3.671379   0.656888
H    8.214582  -0.106959   4.488251
H    9.717029   0.075400  -1.044414
H   11.246799  -1.461779   1.134176
H    6.744489  -3.631902   0.396937
H    4.748863  -2.842999   2.966568

