%chk=mol_3186.chk
# wB97XD/Def2SVP opt pop=full gfinput

C 6 H 6 O 1

1 2
C    1.869695  -0.048358   0.031256
C    4.762110   0.000000   0.000000
O    5.616852  -1.229286   2.243691
C    5.703326  -1.456658  -2.183956
C    6.476526  -2.639891  -3.962132
C    5.672996   2.572238   0.000000
C    6.423746   4.692322   0.000000
H    1.061743   0.844821  -1.654947
H    1.122743   0.934961   1.696521
H    1.157722  -1.992830   0.130618
H    5.261810  -0.086644   3.634246
H    7.176915  -3.690012  -5.530775
H    7.111644   6.585242  -0.012170

