%chk=mol_5535.chk
# wB97XD/Def2SVP opt pop=full gfinput

C 5 H 7 N 1 O 1

1 2
N    1.942128   0.086247  -0.098077
C    4.526272  -0.041120  -0.165275
C    5.928449  -2.139151  -0.232417
C    8.571193  -1.309335  -0.331836
O   10.345211  -2.786552  -0.347256
C    8.792687   1.510042  -0.440835
C    6.055665   2.358907  -0.171020
H    1.063462  -1.534288   0.450114
H    1.230212   1.657176   0.751998
H    5.351326  -4.085002  -0.247705
H    9.588206   2.079927  -2.261643
H    9.964828   2.207729   1.110290
H    5.512520   3.598095  -1.737546
H    5.783469   3.401394   1.597745

