%chk=mol_4141.chk
# wB97XD/Def2SVP opt pop=full gfinput

C 4 H 5 N 1 O 2

1 2
C    1.942620  -0.057580  -0.011943
C    4.715585   0.233873  -0.001209
N    6.069214   2.323040   0.012151
C    8.498098   1.467391   0.016686
O   10.544256   2.958971   0.029820
C    8.545322  -1.127089   0.005839
O    6.105403  -1.951785  -0.005877
H    1.014537   1.789590   0.002929
H    1.319085  -1.109137   1.654644
H    1.329063  -1.077238  -1.701906
H   12.073195   1.950330   0.030651
H    9.989319  -2.563962   0.004611

