%chk=mol_4949.chk
# wB97XD/Def2SVP opt pop=full gfinput

C 4 H 8 N 2 O 1

1 2
C    4.774336  -1.963180   2.629686
C    4.044487  -0.297518   0.439040
O    2.028262  -0.560020  -0.691564
N    5.695767   1.590488  -0.244266
N    8.168511   1.679116   0.650689
C    9.261208   4.133228   0.007672
C    8.289132   3.617484   2.620181
H    6.502283  -3.008104   2.192781
H    3.261667  -3.328167   2.982989
H    5.034589  -0.825735   4.334899
H    5.227493   2.481588  -1.876857
H    8.218400   5.434115  -1.179680
H   11.289186   4.148553  -0.274218
H    9.654516   3.277919   4.106602
H    6.558181   4.529541   3.224666

