%chk=mol_4650.chk
# wB97XD/Def2SVP opt pop=full gfinput

C 5 H 10 N 2

1 2
C    1.165640   0.648365  -1.457697
C    0.062493   2.391921   0.502062
N    0.324031  -0.312145   0.985757
C    2.432890  -0.897658   2.693559
C    1.416973  -1.351400   5.393108
N    3.040078  -3.648872   5.530510
C    2.906323  -3.777184   2.718749
H   -0.003005   0.140992  -3.061035
H    3.174910   0.742738  -1.838949
H   -1.850873   3.060374   0.224896
H    1.308541   3.687989   1.476594
H    4.146248   0.267188   2.591684
H   -0.603919  -1.784487   5.560841
H    1.889046   0.111645   6.775953
H    4.815362  -3.281509   6.185168
H    4.656550  -4.397525   1.808562
H    1.355614  -4.977331   2.043644

