%chk=mol_3011.chk
# wB97XD/Def2SVP opt pop=full gfinput

C 5 H 10 O 2

1 2
C    7.591767  -1.717062   1.427027
C    7.017819   0.807896   2.687417
C    6.347496   2.874103   0.767928
C    5.384076   5.284355   2.030737
O    7.128425   6.147902   3.886562
C    8.643476   3.568143  -0.781269
O    8.676413   3.471918  -3.100001
H    7.952535  -3.161909   2.862576
H    9.265988  -1.592434   0.219624
H    5.998444  -2.348665   0.269305
H    8.655871   1.363343   3.828037
H    5.428068   0.540405   3.990705
H    4.887550   2.181878  -0.530805
H    3.575286   4.924267   2.969629
H    5.114336   6.795606   0.642148
H    6.398820   7.652786   4.655907
H   10.316185   4.212748   0.287087

