%chk=mol_2752.chk
# wB97XD/Def2SVP opt pop=full gfinput

C 6 H 8 O 1

1 2
C    2.124525  -2.282052   1.096381
C    4.639240  -1.100520   0.577198
C    5.153378   1.346713   0.108036
C    3.322006   3.381268   0.058525
C    1.832278   4.023397   2.001088
C    7.844971   2.008722  -0.496847
O    9.576584   0.475455  -0.614066
H    1.792216  -3.816340  -0.252165
H    0.541596  -0.966311   0.934791
H    2.108896  -3.087548   3.001660
H    6.193672  -2.454301   0.550213
H    3.247173   4.489366  -1.673107
H    1.876177   3.011241   3.786047
H    0.525627   5.597218   1.842426
H    8.182004   4.037438  -0.846219

