%chk=mol_6432.chk
# wB97XD/Def2SVP opt pop=full gfinput

C 4 H 5 N 1 O 1 S 1

1 2
C    1.907206   0.016403   0.036245
C    4.733273   0.001380   0.134964
C    6.144633   2.106440   0.010450
C    8.842558   1.438497   0.006916
O   10.588173   2.932950  -0.093428
S    9.099692  -1.880807   0.080899
N    5.975673  -2.289800   0.368270
H    1.151807   1.940522  -0.059394
H    1.122384  -0.889286   1.722693
H    1.240700  -1.012648  -1.630229
H    5.516621   4.033110  -0.153654
H    5.106569  -3.805474  -0.438983

