%chk=mol_2272.chk
# wB97XD/Def2SVP opt pop=full gfinput

C 5 H 8 O 2

1 2
C    1.503693  -0.096093  -0.275201
C    4.227242  -0.756873  -0.006349
C    5.754953  -1.577165  -2.259432
C    6.211265   0.975458  -1.086422
O    8.502255   1.198691   0.367306
C    8.691115   3.250442   1.897417
O    7.136324   4.938591   2.141929
H    0.976970   1.322808   1.133439
H    0.332875  -1.772299   0.029272
H    1.067091   0.662708  -2.148997
H    4.617035  -1.649429   1.795788
H    4.849944  -1.632232  -4.096095
H    7.169016  -3.033180  -1.982134
H    5.598484   2.610354  -2.168045
H   10.504950   3.168220   2.911747

