%chk=mol_5858.chk
# wB97XD/Def2SVP opt pop=full gfinput

C 5 H 9 N 1 O 1

1 2
N    2.173733  -0.433806   0.887453
C    4.624046  -0.428269   0.083299
O    5.619913  -2.365030  -0.696043
C    5.884021   2.134994   0.161156
C    8.754931   1.900951   0.003987
C   10.004644   4.448718   0.125005
C   11.520205   5.193874   2.008042
H    1.359828   1.065390   1.744331
H    1.268290  -2.117419   0.929934
H    5.341594   3.100719   1.912743
H    5.160294   3.244754  -1.433074
H    9.303197   0.978236  -1.769615
H    9.436555   0.676106   1.534250
H    9.662169   5.727420  -1.446850
H   11.935680   3.976588   3.607298
H   12.387420   7.052080   1.984250

