%chk=mol_3247.chk
# wB97XD/Def2SVP opt pop=full gfinput

C 5 H 12 O 2

1 2
C    1.733786  -0.160022   0.029140
C    4.593282   0.132149   0.189936
O    5.752723  -1.255553  -1.839346
C    5.591416   2.890997   0.139462
C    4.898870   4.316323  -2.281126
C    4.735616   4.390419   2.454981
O    8.304232   2.772531   0.222118
H    0.777452   0.772067   1.604359
H    1.226187  -2.166817   0.061700
H    0.990670   0.594073  -1.746957
H    5.262056  -0.782725   1.925763
H    4.812660  -0.903743  -3.381192
H    5.606232   3.337634  -3.962718
H    5.782392   6.190894  -2.300099
H    2.855754   4.571323  -2.474710
H    5.267309   3.412184   4.201636
H    2.690724   4.699239   2.470874
H    5.668082   6.239422   2.519685
H    8.770484   1.286601  -0.775563

