%chk=mol_0951.chk
# wB97XD/Def2SVP opt pop=full gfinput

C 4 H 5 N 1 O 1

1 2
C    1.922078   0.047640  -0.212953
C    4.430954  -0.072736  -0.010753
C    6.187133  -2.243747  -0.037039
O    8.659141  -1.172556   0.383936
N    8.468940   1.510987   0.545092
C    6.107387   2.081685   0.327867
H    0.799713  -1.652906  -0.450681
H    0.920410   1.837891  -0.143014
H    6.204046  -3.206506  -1.865405
H    5.792256  -3.590366   1.479372
H    5.347528   4.012777   0.385618

