%chk=mol_1373.chk
# wB97XD/Def2SVP opt pop=full gfinput

C 5 H 12 N 2

1 2
C    6.192500  -1.683595  -1.957832
C    5.108799  -0.511133   0.437434
C    6.125264   2.162470   0.979974
N    4.802059   3.210040   3.179993
C    8.959626   2.166004   1.390479
C   10.268809   3.765430   3.363146
N   10.033992   1.031412   3.684645
H    5.283939  -3.508125  -2.325610
H    8.224220  -2.025994  -1.785810
H    5.866673  -0.464646  -3.593163
H    5.506605  -1.776097   2.034366
H    3.047183  -0.437623   0.233324
H    5.708447   3.385577  -0.640031
H    5.407281   2.214041   4.723692
H    2.917529   2.864107   3.032274
H    9.981136   1.844751  -0.357839
H    9.160523   4.922869   4.634157
H   12.138165   4.484717   2.955021
H   11.706551   0.149874   3.285969

