%chk=mol_2990.chk
# wB97XD/Def2SVP opt pop=full gfinput

C 5 H 10 O 2

1 2
C    1.793331  -0.281418   0.139084
C    4.641696  -0.170529  -0.289619
C    5.492054  -2.182936  -2.164927
C    5.429145   2.425822  -1.247597
O    4.084133   3.713028  -2.650605
C    8.050365   3.352998  -0.487587
O    8.528013   5.835493  -1.386284
H    1.191170   1.203718   1.449288
H    1.243005  -2.106553   0.943276
H    0.746423  -0.018387  -1.627262
H    5.575070  -0.487190   1.533229
H    4.622119  -1.894450  -4.021734
H    4.981866  -4.074401  -1.500178
H    7.543825  -2.131913  -2.429394
H    9.475540   2.086503  -1.280781
H    8.195062   3.373331   1.572725
H    7.199970   6.200135  -2.623715

