%chk=mol_5501.chk
# wB97XD/Def2SVP opt pop=full gfinput

C 5 H 11 N 1 O 1

1 2
N    1.979772   0.032503   0.140426
C    4.720952   0.034450  -0.108130
C    5.832413   2.007097   1.731121
C    7.821463  -0.006406   2.449028
C    5.863820  -2.038391   1.630758
C    6.904304  -4.343668   0.281059
O    8.205626  -5.910515   2.036067
H    1.114334  -1.473325  -0.694739
H    1.130718   1.601883  -0.583453
H    5.456055   0.116861  -2.039959
H    4.623139   2.550866   3.324161
H    6.587850   3.719529   0.855914
H    9.529832   0.066462   1.278475
H    8.373905  -0.044787   4.439175
H    4.628582  -2.588736   3.211760
H    8.211332  -3.834764  -1.239415
H    5.368239  -5.457907  -0.540594
H    9.572824  -4.920337   2.760625

