%chk=mol_0091.chk
# wB97XD/Def2SVP opt pop=full gfinput

C 5 H 6

1 2
C    1.922702   0.067312  -0.200009
C    4.187898   0.017367  -0.088401
C    6.892096  -0.051476   0.056106
C    8.332559  -1.421679  -1.979772
C    8.406125   1.411304  -1.859131
H   -0.087948   0.108187  -0.297613
H    7.665750  -0.150177   1.954903
H    7.289335  -2.287740  -3.516346
H   10.012790  -2.453998  -1.427046
H   10.138248   2.302197  -1.226073
H    7.412583   2.458874  -3.313351

