%chk=mol_0109.chk
# wB97XD/Def2SVP opt pop=full gfinput

C 3 H 5 N 1 O 1

1 2
N    1.939842  -0.023395   0.463229
C    4.307669  -0.013833  -0.529823
O    5.307731  -1.933719  -1.334487
C    5.519720   2.506986  -0.534358
C    7.857028   2.799932  -1.457980
H    1.058511   1.523932   1.143360
H    1.021756  -1.698996   0.513457
H    4.481920   4.098759   0.220588
H    8.913498   1.211163  -2.220164
H    8.763794   4.637218  -1.471114

