%chk=mol_0132.chk
# wB97XD/Def2SVP opt pop=full gfinput

C 5 H 6

1 2
C    1.889726   0.000000   0.000000
C    4.618491   0.000000   0.000000
C    6.867567   0.000000   0.000000
C    9.524522   0.000000   0.000000
C   10.850657   2.150263   0.000000
H    1.145155   1.929184   0.022072
H    1.145023  -0.983640   1.659652
H    1.145023  -0.945411  -1.681724
H   10.496428  -1.807221  -0.000000
H    9.931664   3.985054   0.000000
H   12.900820   2.114547   0.000000

