%chk=mol_1155.chk
# wB97XD/Def2SVP opt pop=full gfinput

C 4 H 5 N 1 S 1

1 2
N    1.745842   0.171379  -0.198157
C    4.286012   0.039628  -0.105277
C    5.960102   2.032004  -0.041347
C    8.527975   1.218949   0.043766
C    8.722219  -1.375021   0.044560
S    5.822567  -2.802558  -0.055029
H    0.827795   1.808638   0.192790
H    0.718058  -1.414649   0.122643
H    5.376724   3.992122  -0.064704
H   10.143067   2.472026   0.095941
H   10.421934  -2.506948   0.095431

