%chk=mol_6747.chk
# wB97XD/Def2SVP opt pop=full gfinput

C 6 H 11 N 1

1 2
C    1.462988  -0.548965  -1.030203
C    4.139577  -0.242943  -0.088685
C    6.220336  -1.155001  -1.851875
N    5.719483   1.526653  -1.546363
C    4.555071  -0.280813   2.802917
C    3.371460   1.670612   4.523513
C    2.584276  -1.044527   4.722558
H    1.335980  -0.397939  -3.092405
H    0.232266   0.907428  -0.224934
H    0.724464  -2.405867  -0.496053
H    5.700076  -1.968736  -3.656053
H    7.963004  -1.867409  -1.050915
H    7.015835   2.361118  -0.387280
H    6.477244  -0.819442   3.332853
H    2.042586   3.000904   3.710988
H    4.527255   2.454131   6.021291
H    3.210021  -2.107914   6.358721
H    0.702109  -1.540996   4.090369

