%chk=mol_6790.chk
# wB97XD/Def2SVP opt pop=full gfinput

C 6 H 13 N 1

1 2
C    1.871717   0.052459  -0.020220
C    4.739584   0.001191   0.078669
C    5.858643   2.059537   1.737565
N    8.446206   1.166641   2.175547
C    8.204189  -1.572649   2.626285
C   10.556463  -2.988016   1.765080
C    5.812798  -2.416638   1.225828
H    1.154793  -1.495510  -1.189072
H    1.202149   1.835283  -0.833483
H    1.043601  -0.135285   1.867295
H    5.476067   0.205205  -1.851573
H    4.857768   2.238022   3.543047
H    5.849156   3.906744   0.807423
H    9.468227   1.450176   0.563422
H    7.950928  -1.884586   4.660178
H   10.897521  -2.738364  -0.262275
H   10.357230  -5.015692   2.129381
H   12.233067  -2.322700   2.781261
H    6.184186  -3.820629  -0.249444
H    4.481675  -3.257396   2.574166

