%chk=mol_1860.chk
# wB97XD/Def2SVP opt pop=full gfinput

C 5 H 12 N 2

1 2
C    4.507394  -1.215718  -2.700834
N    6.290445  -0.268549  -0.823467
N    7.217904   2.071064  -1.284674
C    8.897549   2.790332   0.344214
C   10.116762   5.360832   0.119601
C    9.458854   6.919724   2.448367
C   12.963446   5.037991  -0.155033
H    3.927059  -3.137437  -2.207729
H    5.378671  -1.274828  -4.575594
H    2.818848  -0.024453  -2.783756
H    5.460439  -0.371577   0.919201
H    9.503074   1.583345   1.939653
H    9.372626   6.309304  -1.565260
H   10.168957   6.032346   4.179715
H    7.406687   7.110775   2.647903
H   10.269962   8.818823   2.317541
H   13.780979   4.089991   1.494490
H   13.895591   6.872253  -0.371785
H   13.414334   3.888168  -1.816348

