%chk=mol_6155.chk
# wB97XD/Def2SVP opt pop=full gfinput

C 4 H 6 N 2 O 1

1 2
O    3.505612   0.009883  -1.728287
C    4.869824  -0.029914   0.593431
C    6.457648   2.296112   0.825905
N    7.357913   3.597831  -1.442938
C    5.416673   4.857806   0.109774
C    6.060484   6.989152   1.666115
N    6.525130   8.691984   2.966643
H    2.633258  -1.605285  -1.853122
H    6.072314  -1.712772   0.617449
H    3.521977  -0.140690   2.157274
H    7.790944   2.173620   2.376501
H    6.510182   2.789444  -2.989150
H    3.554669   4.941218  -0.744344

