%chk=mol_1040.chk
# wB97XD/Def2SVP opt pop=full gfinput

C 4 H 7 N 1 O 1

1 2
C    1.884586   0.196720  -0.243983
N    4.631001   0.133830  -0.078613
C    5.956870  -2.117873  -0.247063
C    4.938969  -4.408864  -0.566937
C    5.899574   2.413955   0.257683
O    4.940954   4.514140   0.433768
H    1.148670   2.121066  -0.081126
H    1.081755  -0.932996   1.291703
H    1.291968  -0.567447  -2.072633
H    8.004578  -1.969699  -0.101951
H    2.923463  -4.731685  -0.729321
H    6.147298  -6.064094  -0.676087
H    7.968465   2.177758   0.361297

