%chk=mol_6893.chk
# wB97XD/Def2SVP opt pop=full gfinput

C 5 H 8 N 2

1 2
C    1.744463   0.034015   0.347388
C    4.603637   0.054235  -0.041593
N    5.253363   2.233524  -1.631760
N    7.436318   2.313025  -2.981383
C    8.286355   0.135115  -3.721797
C    7.217355  -2.370265  -3.082956
C    5.486253  -2.370945  -1.238167
H    1.106699   1.780613   1.259502
H    1.175296  -1.545342   1.560101
H    0.728943  -0.154617  -1.448815
H    5.535121   0.245740   1.799340
H    4.947473   3.893951  -0.702147
H   10.001244   0.085926  -4.900835
H    7.938437  -4.042918  -3.998925
H    4.707025  -4.143697  -0.558981

