%chk=mol_6219.chk
# wB97XD/Def2SVP opt pop=full gfinput

C 4 H 5 N 1 O 2

1 2
O    1.891351  -0.005631  -0.018482
C    4.573137   0.000000   0.000000
C    5.484023   2.572238   0.000000
C    6.234774   4.692322   0.000000
C    7.593033   7.037095  -0.000548
N    6.178913   9.010516   0.001247
O    7.747027  11.148251   0.000435
H    1.364288  -1.762812  -0.013889
H    5.238434  -1.022134  -1.670027
H    5.215266  -1.013630   1.684237
H    9.675246   7.023186  -0.002343
H    6.527284  12.530812   0.001266

