%chk=mol_2427.chk
# wB97XD/Def2SVP opt pop=full gfinput

C 5 H 10 O 2

1 2
C    1.996307  -0.106940   0.143733
C    4.848168   0.145396   0.003364
C    5.892752   2.264421   1.641340
C    8.502615   1.295993   2.268711
O   10.175476   1.785999   0.207190
C    8.032943  -1.522080   2.575130
O    6.025108  -2.157292   0.848563
H    1.354480  -1.696275  -1.018317
H    1.060344   1.615621  -0.515536
H    1.376061  -0.502781   2.079889
H    5.412327   0.420029  -1.970852
H    4.784787   2.456795   3.381570
H    5.885344   4.075270   0.643282
H    9.315480   2.161771   3.957805
H    9.791503   0.580278  -1.131001
H    9.685092  -2.679008   2.125394
H    7.370423  -1.972269   4.483640

