%chk=mol_6870.chk
# wB97XD/Def2SVP opt pop=full gfinput

C 5 H 8 N 2

1 2
C    1.854785   0.071885  -0.017556
N    4.579146   0.040610  -0.004403
C    6.096238   2.132178   0.013946
C    8.520151   1.206968   0.020863
N    8.510212  -1.380199   0.007068
C    6.111582  -2.058403  -0.008145
C    5.192760  -4.710615  -0.028006
H    1.183989   2.026089  -0.007351
H    1.177564  -0.902665   1.673296
H    1.194420  -0.879668  -1.728003
H    5.362476   4.037872   0.020315
H   10.271606   2.263608   0.034903
H    3.132353  -4.849585  -0.014834
H    5.909325  -5.714721   1.632251
H    5.886591  -5.681651  -1.717421

