%chk=mol_4508.chk
# wB97XD/Def2SVP opt pop=full gfinput

C 4 H 9 N 1 O 2

1 2
C    4.896658   0.243170   3.364147
C    6.898445   1.141621   1.504071
C    5.853691   1.668042  -1.143624
N    3.932955   3.739295  -1.145061
C    8.000401   2.419190  -2.963128
O    7.297196   4.397638  -4.445316
O   10.052247   1.379443  -3.125475
H    5.776175  -0.241942   5.172634
H    3.926492  -1.439215   2.652590
H    3.484844   1.709257   3.727825
H    8.372507  -0.311616   1.379821
H    7.826811   2.835307   2.259942
H    4.968714  -0.026418  -1.940446
H    4.491029   5.077940   0.142599
H    2.298039   3.023845  -0.395104
H    5.560141   4.833787  -3.899431

