%chk=mol_7013.chk
# wB97XD/Def2SVP opt pop=full gfinput

C 6 H 9 N 1

1 2
C    6.675325  -2.210337  -4.456050
C    6.762177  -1.211673  -2.442717
C    6.867567   0.000000   0.000000
C    8.309447   2.495327  -0.140633
C    6.962412   4.763735  -1.400741
C    8.100670   6.310060   0.779115
N    8.195477   3.949150   2.275854
H    6.592423  -3.108014  -6.257053
H    7.805532  -1.259238   1.353233
H    4.946188   0.307288   0.715507
H   10.262063   2.241933  -0.806271
H    4.891783   4.678092  -1.375456
H    7.601688   5.265646  -3.298271
H    9.966529   7.111323   0.366720
H    6.887012   7.786862   1.560498
H    9.753349   3.773726   3.396291

