%chk=mol_0525.chk
# wB97XD/Def2SVP opt pop=full gfinput

C 4 H 6 N 2

1 2
N    2.136033   0.026796   0.623477
C    4.492937   0.027533   0.038891
C    6.052113  -2.394472  -0.178825
C    8.573328  -1.236561  -0.905746
C    8.404538   1.286072  -1.041579
N    6.013203   2.046177  -0.483014
H    1.487498   1.846678   0.656188
H    5.298887  -3.615745  -1.662260
H    6.138624  -3.371819   1.637070
H   10.259115  -2.329220  -1.261657
H    9.865050   2.634240  -1.513217
H    5.478127   3.873353  -0.502629

