%chk=mol_2921.chk
# wB97XD/Def2SVP opt pop=full gfinput

C 6 H 8 O 1

1 2
C    1.613240   0.509300   0.330948
C    4.413266   0.090197   0.086323
C    5.536180  -2.179062  -0.175801
C    4.327888  -4.727244  -0.199215
O    4.758066  -5.847398  -2.596503
C    5.998936   2.282128   0.104918
C    7.321404   4.122230   0.120149
H    1.005410   2.055890  -0.905500
H    1.135480   1.015785   2.279633
H    0.493332  -1.142037  -0.199102
H    7.588139  -2.245505  -0.356950
H    2.296754  -4.701884   0.159776
H    5.200715  -5.928146   1.240492
H    4.195872  -4.637728  -3.860673
H    8.500272   5.755614   0.133396

