%chk=mol_0719.chk
# wB97XD/Def2SVP opt pop=full gfinput

C 5 H 10 O 1

1 2
C    2.155686  -0.722518   0.061208
C    5.028051  -0.690222   0.006879
C    6.055004   2.007437  -0.062985
C    8.935702   2.031663  -0.141918
C   10.010597   4.672480  -0.216676
O    8.745728   6.616101  -0.165238
H    1.462346  -2.670296   0.116143
H    1.372546   0.190258  -1.621914
H    1.434227   0.263447   1.730460
H    5.687565  -1.738151  -1.653945
H    5.751060  -1.674619   1.680156
H    5.392900   3.050320   1.602299
H    5.304159   2.999052  -1.721918
H    9.619821   1.035494  -1.822924
H    9.715346   1.089503   1.528354
H   12.090675   4.772125  -0.315849

