%chk=mol_4127.chk
# wB97XD/Def2SVP opt pop=full gfinput

C 5 H 8 N 2

1 2
C    1.360433  -0.126026   0.079406
C    4.033715   0.800488  -0.086379
C    1.875799   2.624546  -0.451871
C    1.356767   4.584154   1.493243
C    0.509584   6.645959  -0.225860
N    0.472205   6.087394  -2.606821
N    1.412514   3.701199  -2.972237
H    0.647193  -0.652598   1.925782
H    0.669927  -1.310771  -1.442145
H    5.137976   0.276807  -1.731329
H    5.124635   0.907957   1.642493
H    3.026548   5.192646   2.544346
H   -0.176387   4.088687   2.785608
H   -0.087551   8.484625   0.530541
H    0.214276   2.658882  -4.070905

