%chk=mol_0021.chk
# wB97XD/Def2SVP opt pop=full gfinput

C 3 H 9 N 1

1 2
C    1.868486  -0.057164  -0.002986
C    4.741474   0.021902   0.004687
C    5.717801   2.736664   0.016781
N    8.472757   2.761438   0.008145
H    1.206288  -2.016432  -0.011679
H    1.105509   0.885809  -1.678606
H    1.096892   0.874093   1.675242
H    5.449592  -0.981089  -1.665227
H    5.439614  -0.994601   1.670575
H    5.027427   3.738936   1.691721
H    5.028372   3.748839  -1.651904
H    9.135333   1.872322   1.581493
H    9.094723   4.581641   0.114744

