%chk=mol_4751.chk
# wB97XD/Def2SVP opt pop=full gfinput

C 4 H 6 N 2 O 1

1 2
C    1.677000  -1.023268  -0.484847
C    4.314528  -0.108754   0.175574
N    4.412227   2.614512   0.406102
C    3.769890   3.841889   2.620124
O    3.146583   2.749797   4.566258
C    3.857422   6.598338   2.543874
N    3.957842   8.787510   2.370983
H    1.657781  -3.080896  -0.689882
H    1.029787  -0.186970  -2.263760
H    0.315735  -0.506352   0.985190
H    5.649620  -0.648384  -1.308994
H    4.937703  -0.965726   1.953278
H    4.805196   3.661571  -1.150654

