%chk=mol_0670.chk
# wB97XD/Def2SVP opt pop=full gfinput

C 5 H 8 O 1

1 2
C    3.123717   0.139197  -2.686208
C    4.435660  -0.308951  -0.569563
C    5.899593   1.660748   0.866477
C    8.672161   1.123442   1.024194
C   10.547582   2.462105  -0.648100
O   10.156522   3.205335   1.930355
H    2.088960  -1.366896  -3.615046
H    3.041741   2.005302  -3.533070
H    4.439685  -2.209430   0.213331
H    5.137258   1.740835   2.793733
H    5.577754   3.537435   0.040289
H    9.120196  -0.732666   1.754478
H    9.858588   3.719718  -2.108216
H   12.300926   1.508436  -1.097345

