%chk=mol_6557.chk
# wB97XD/Def2SVP opt pop=full gfinput

C 3 H 6 O 3 S 1

1 2
C    1.801892  -0.016327   0.146416
C    4.620343   0.104351   0.174667
C    5.946987   2.169311  -0.471808
S    9.210657   2.093495  -0.403249
O    9.767181   5.084270  -0.231510
O   10.116063   1.066391   1.961252
O   10.185303   1.234520  -2.805582
H    1.173293  -1.493772  -1.156569
H    0.948680   1.772582  -0.445541
H    1.097704  -0.472564   2.036312
H    5.599145  -1.609518   0.759897
H    5.066091   3.907103  -1.079978
H   11.202656   5.310263   0.918294

