%chk=mol_5358.chk
# wB97XD/Def2SVP opt pop=full gfinput

C 4 H 10 N 2 O 1

1 2
C    5.316612  -1.659539  -1.274129
O    4.748277   0.030330   0.740376
C    5.594686   2.538960   0.251050
C    4.541730   4.235708   2.320962
C    8.459756   2.712475   0.300523
N    9.696411   3.537057  -1.646670
N   12.226509   3.545863  -1.299716
H    4.409166  -3.472277  -0.869803
H    7.355929  -1.973781  -1.408299
H    4.582076  -0.943748  -3.070257
H    4.879065   3.184207  -1.583307
H    5.141208   3.584433   4.194455
H    2.472347   4.194550   2.307941
H    5.169044   6.193502   2.087165
H    9.407700   2.085823   2.055663
H   13.099940   3.978062  -2.970574
H   12.760508   4.950572  -0.083431

