%chk=mol_5660.chk
# wB97XD/Def2SVP opt pop=full gfinput

C 6 H 13 N 1

1 2
C    1.749697   0.275919  -0.513779
C    4.555620   0.222288   0.014626
C    5.138827  -0.021505   2.801859
C    6.237362  -1.175636  -1.825022
C    6.374575   1.671690  -1.722372
C    5.363685   3.125418  -3.965987
N    8.664319   2.818980  -0.627635
H    1.301946   0.047394  -2.519364
H    0.937984   2.065584   0.133585
H    0.797200  -1.265002   0.488778
H    7.139839  -0.385296   3.175666
H    4.077897  -1.596044   3.623285
H    4.598611   1.710334   3.794154
H    5.381505  -2.052073  -3.470236
H    7.815265  -2.261549  -1.095550
H    3.913925   2.088639  -5.011762
H    6.891529   3.533788  -5.301305
H    4.552350   4.923512  -3.343171
H    9.578361   1.610198   0.556430
H    8.197991   4.362376   0.425850

