%chk=mol_0499.chk
# wB97XD/Def2SVP opt pop=full gfinput

C 4 H 8 N 2

1 2
C    2.740934  -0.701731  -0.220550
N    5.459721  -0.246779  -0.252411
C    6.013317   2.458874   0.010715
C    8.866898   2.913806   0.134889
C    9.406622   5.622143   0.379703
N    9.825461   7.768645   0.559378
H    2.381112  -2.729142  -0.412867
H    1.792764   0.265771  -1.784298
H    1.900838  -0.087627   1.567490
H    6.178686  -0.906143  -1.916617
H    5.133214   3.189990   1.740891
H    5.203323   3.503136  -1.587937
H    9.779295   2.180442  -1.575030
H    9.678800   1.895112   1.746334

