%chk=mol_2688.chk
# wB97XD/Def2SVP opt pop=full gfinput

C 6 H 10 O 1

1 2
C    4.443048  -1.198200  -2.823572
C    4.552898   0.296233  -0.401019
C    2.987185  -0.264033   1.519226
C    6.528361   2.258997  -0.246420
C    6.581198   4.356159  -2.174810
C    5.811928   4.924343   0.489382
O    7.613877   6.317336   1.964729
H    6.311629  -1.960477  -3.281755
H    3.821461   0.001965  -4.389248
H    3.132108  -2.794905  -2.696923
H    1.578809  -1.747978   1.372773
H    3.082899   0.758649   3.296401
H    8.339248   1.545985   0.402285
H    5.117870   4.450910  -3.605012
H    8.405199   5.023591  -2.822344
H    3.830702   5.357260   0.804305
H    9.285037   5.556551   1.930412

