%chk=mol_0981.chk
# wB97XD/Def2SVP opt pop=full gfinput

C 6 H 10

1 2
C    1.795183   0.042708   0.210931
C    4.668020  -0.047432  -0.110171
C    5.334659  -1.541298  -2.497651
C    5.745561   2.650908  -0.185949
C    8.521115   2.682410  -0.013984
C   10.788296   2.718995   0.128482
H    1.280762   1.027803   1.956755
H    1.005826  -1.867824   0.311654
H    0.892480   1.026688  -1.370732
H    5.460572  -1.053522   1.522382
H    4.609080  -0.605241  -4.195324
H    4.519885  -3.442646  -2.421457
H    7.381535  -1.752948  -2.707089
H    4.982169   3.746061   1.400230
H    5.140962   3.614158  -1.918544
H   12.797377   2.751101   0.254414

