%chk=mol_6993.chk
# wB97XD/Def2SVP opt pop=full gfinput

C 5 H 10 N 2

1 2
C    5.395414  -1.067336   2.601019
C    4.663372   0.212462   0.141918
C    5.761964   2.829714   0.031691
N    7.958317   3.268017  -1.015029
C    8.319406   6.045139  -0.698594
C    5.751495   7.118655   0.105976
N    4.508452   4.869352   1.018770
H    4.606094  -2.976734   2.683600
H    4.692341  -0.004063   4.231267
H    7.452173  -1.206628   2.782735
H    2.603362   0.333272  -0.013058
H    5.364082  -0.884751  -1.466654
H    9.753349   6.370002   0.760369
H    8.970398   6.898955  -2.465393
H    4.732876   7.889342  -1.521740
H    5.924594   8.572554   1.563030
H    2.594934   4.831217   1.023608

