%chk=mol_3848.chk
# wB97XD/Def2SVP opt pop=full gfinput

C 4 H 7 N 1 O 2

1 2
C    3.176667  -0.230490   0.047734
C    1.347356  -2.281296   0.901569
O   -0.664919  -2.395379  -0.889967
N   -2.847175  -1.150371  -0.016724
C   -2.546746   1.244933   0.462983
C   -0.127802   2.807207   0.412263
O    1.966751   1.952446  -0.984963
H    4.383824  -0.975703  -1.460456
H    4.420636   0.337562   1.601921
H    2.300553  -4.116201   0.954595
H    0.629506  -1.916182   2.812026
H   -4.238599   2.267218   1.126258
H    0.429176   3.169222   2.375688
H   -0.664919   4.644644  -0.377246

