%chk=mol_4874.chk
# wB97XD/Def2SVP opt pop=full gfinput

C 4 H 7 N 1 O 2

1 2
C    2.878601  -0.647004  -1.984742
C    3.461789   0.909695   0.310482
O    2.355600   0.706380   2.331412
C    5.540072   2.858286   0.039495
C    5.131438   5.348038   1.347337
N    7.535151   2.235187  -1.255345
O    9.296319   4.208269  -1.296636
H    2.474577   0.593412  -3.585944
H    1.207951  -1.807070  -1.618380
H    4.468144  -1.891748  -2.419039
H    3.178973   5.535613   1.992414
H    5.527732   6.901696   0.044654
H    6.394625   5.477938   2.976867
H   10.705544   3.474696  -2.234374

