%chk=mol_4605.chk
# wB97XD/Def2SVP opt pop=full gfinput

C 5 H 10 N 2

1 2
C    1.465086   1.669667  -1.242552
N   -0.747670   0.874509   0.185212
C    1.377705  -0.884864   0.011603
C    2.923180  -1.537198   2.306921
C    2.342901  -0.420955   4.945130
C    2.855319  -3.109412   5.906377
N    2.185827  -4.044033   3.357495
H    1.258860   1.774680  -3.274801
H    2.598695   3.142615  -0.387224
H   -2.180498   0.290602  -0.967804
H    1.151429  -2.518041  -1.205513
H    4.949646  -1.452103   1.848266
H    0.391532   0.206150   5.242724
H    3.636117   1.042052   5.617948
H    4.828269  -3.461884   6.431588
H    1.622198  -3.770401   7.425792
H    3.252729  -5.520211   2.741728

