%chk=mol_1938.chk
# wB97XD/Def2SVP opt pop=full gfinput

C 5 H 6 N 2

1 2
N    1.879370  -0.015231   0.474737
C    4.480522  -0.048396  -0.007729
C    5.853370   2.198016  -0.090461
C    8.477482   2.138263  -0.326507
C    9.666195  -0.192185  -0.391154
N    8.430635  -2.411612  -0.207568
C    5.884380  -2.278651   0.032106
H    0.994998   1.562463  -0.166712
H    0.971470  -1.618985  -0.062096
H    4.895373   4.009942   0.029234
H    9.565945   3.870953  -0.427683
H   11.706456  -0.334444  -0.571831
H    4.959737  -4.096114   0.262880

