%chk=mol_0422.chk
# wB97XD/Def2SVP opt pop=full gfinput

C 5 H 11 N 1

1 2
C    5.776496  -2.029812  -0.978179
C    4.694930   0.391268   0.134889
N    6.645902   2.356526   0.168771
C    6.569822   4.045091  -2.016489
C    5.620953   4.889723   0.540140
C    7.098114   6.740955   2.061691
H    4.350206  -3.527646  -0.942501
H    7.412999  -2.686586   0.105069
H    6.364655  -1.755934  -2.943022
H    4.090804   0.019370   2.081892
H    2.998032   0.932826  -0.929670
H    5.205667   3.678711  -3.497335
H    8.387568   4.725941  -2.666952
H    3.601856   5.101599   0.809861
H    9.140549   6.516343   1.809734
H    6.670072   6.512771   4.072775
H    6.593632   8.670763   1.513860

