%chk=mol_3643.chk
# wB97XD/Def2SVP opt pop=full gfinput

C 7 H 14

1 2
C    5.595026  -1.790289  -1.778138
C    4.889874  -0.292681   0.578200
C    5.902560   2.442452   0.566956
C    4.847507   3.878436   2.876239
C    5.593495   6.658923   2.948086
C    8.761337   2.474842   0.553595
C   10.156654   3.514399  -1.281820
H    4.721103  -3.664122  -1.711997
H    7.639237  -2.059253  -1.928106
H    4.931486  -0.835391  -3.488302
H    5.577357  -1.305442   2.252553
H    2.821210  -0.251882   0.718020
H    5.188810   3.379700  -1.142680
H    5.466846   2.967588   4.633759
H    2.776386   3.768851   2.849953
H    7.628711   6.891699   3.226481
H    4.636878   7.606715   4.518052
H    5.055773   7.618166   1.197085
H    9.714099   1.593228   2.148808
H    9.296054   4.418860  -2.911614
H   12.205741   3.483087  -1.189394

