%chk=mol_3029.chk
# wB97XD/Def2SVP opt pop=full gfinput

C 6 H 12 O 1

1 2
C    2.043682   0.488570   0.060131
C    4.900476   0.011168   0.088836
C    5.561918  -1.672767   2.342561
O    5.529962  -1.382505  -2.138811
C    6.313235   2.498237  -0.017064
C    7.625574   3.685779   2.224642
C    9.164303   2.593479   0.098700
H    1.482981   1.543283  -1.632081
H    1.441710   1.570079   1.718120
H    0.992427  -1.295124   0.011508
H    5.052598  -0.790397   4.142601
H    7.580202  -2.128153   2.385666
H    4.570605  -3.488113   2.215780
H    5.254025  -0.276183  -3.577837
H    5.443923   3.787030  -1.361321
H    7.678562   2.716595   4.025589
H    7.552876   5.727174   2.399801
H   10.129764   3.893384  -1.156645
H   10.198021   0.858465   0.437320

