%chk=mol_5919.chk
# wB97XD/Def2SVP opt pop=full gfinput

C 4 H 8 N 2 O 1

1 2
N    2.646108   2.913826   1.514086
N    5.031094   3.545221   0.837583
C    6.653971   1.765798   1.229399
O    9.143421   1.959193   0.684761
C    9.939733   4.337640  -0.330343
C   12.730461   4.316720  -0.874527
C   14.333478   2.384683  -0.530559
H    1.513935   4.477328   1.397415
H    1.880202   1.653643   0.262559
H    6.230503  -0.108584   2.037465
H    9.543438   5.842825   1.037384
H    8.926594   4.717304  -2.097728
H   13.479964   6.079608  -1.622046
H   13.702895   0.578332   0.207001
H   16.321394   2.575527  -0.988931

