%chk=mol_6927.chk
# wB97XD/Def2SVP opt pop=full gfinput

C 6 H 13 N 1

1 2
C    4.282649  -0.902420  -2.754011
C    4.609401   0.071999  -0.071488
C    6.202364   2.468190  -0.051495
C    4.956525   4.925477  -1.066769
C    6.082839   6.369549   1.196839
N    8.554280   7.394630   0.490554
C    6.441831   3.812636   2.546160
H    3.170318  -2.645409  -2.755523
H    6.115758  -1.303269  -3.625496
H    3.308306   0.485338  -3.938775
H    5.534006  -1.386983   1.071418
H    2.747360   0.417705   0.767588
H    8.066919   2.124902  -0.902590
H    2.882834   4.884810  -1.034020
H    5.551448   5.514145  -2.958442
H    4.831161   7.725314   2.122654
H    9.721979   6.167121  -0.424810
H    9.561542   8.069017   1.985554
H    8.226375   3.511338   3.547337
H    4.894636   3.380437   3.857668

