%chk=mol_2238.chk
# wB97XD/Def2SVP opt pop=full gfinput

C 5 H 6 O 2

1 2
C   -2.498823   1.219988   0.386109
O   -2.676929  -1.443108   0.000586
C   -0.627238  -2.795453   0.781610
C    1.782579  -2.055909   0.976289
C    2.849348   0.308347   0.142542
C    1.632100   2.248812  -0.935112
O   -0.896505   2.576755  -1.304554
H   -4.405594   1.963803   0.075495
H   -2.045610   1.663394   2.366315
H   -1.201393  -4.717474   1.205343
H    3.155880  -3.438187   1.638298
H    4.902706   0.409806   0.238408
H    2.646448   3.839413  -1.735865

