%chk=mol_4235.chk
# wB97XD/Def2SVP opt pop=full gfinput

C 5 H 7 N 1 O 1

1 2
C    1.382240   0.984944   1.088312
C    3.587324   0.484677  -0.049454
C    5.816388   2.167062   0.107129
C    5.547499   4.884545  -0.926741
C    6.687703   5.635239   1.644251
O    7.779455   7.412432   2.562147
N    6.177420   3.306208   2.613208
H   -0.196475  -0.315811   0.922262
H    1.086725   2.672413   2.218520
H    3.789090  -1.236882  -1.151467
H    7.543447   1.205173  -0.521829
H    3.636192   5.615775  -1.218363
H    6.739085   5.328650  -2.552548
H    7.263087   2.680255   4.052858

