%chk=mol_0711.chk
# wB97XD/Def2SVP opt pop=full gfinput

C 5 H 12 O 1

1 2
C    1.813476  -0.096811   0.051023
C    4.683913   0.055955   0.135852
C    5.724245   2.772720   0.126007
C    4.822392   4.302793   2.413256
C    8.623425   2.694787   0.017915
O    9.662150   5.171009  -0.099645
H    1.215642  -2.067455  -0.146151
H    1.057982   0.965423  -1.554149
H    0.962305   0.636271   1.786660
H    5.432093  -0.956806  -1.512461
H    5.362589  -0.956598   1.813060
H    5.040958   3.749878  -1.573216
H    5.368315   3.386011   4.185441
H    2.765520   4.521718   2.405338
H    5.626263   6.208336   2.403051
H    9.271525   1.656005  -1.650052
H    9.402843   1.759184   1.690341
H    8.935362   6.006343  -1.566829

