%chk=mol_2511.chk
# wB97XD/Def2SVP opt pop=full gfinput

C 6 H 10 O 1

1 2
C    1.820713  -0.413737  -0.183133
C    4.610799  -0.102820  -0.126990
O    5.865313  -0.743229  -2.438635
C    5.891391   1.876857  -1.726813
C    8.440291   2.890468  -1.030524
C    8.388834   4.656436   1.195762
C    9.652929   4.256325   3.350409
H    0.929311   0.909544   1.133930
H    1.305839  -2.335361   0.386071
H    1.036987  -0.070921  -2.068797
H    5.460893  -0.667602   1.642134
H    4.754740   3.185625  -2.809645
H    9.202532   3.922127  -2.658391
H    9.756486   1.326361  -0.674273
H    7.247440   6.354941   1.007848
H   10.821423   2.591325   3.623191
H    9.545442   5.598389   4.899701

