%chk=mol_0781.chk
# wB97XD/Def2SVP opt pop=full gfinput

C 5 H 10 O 1

1 2
C    1.721559  -0.201879  -0.294174
C    4.536514   0.172211   0.193791
O    5.952996  -1.489048  -1.376741
C    5.420321   2.859949  -0.230320
C    5.184653   3.962075  -2.840485
C    6.398839   4.237881   1.668439
H    0.575592   1.071286   0.865438
H    1.179548  -2.152304   0.141994
H    1.242193   0.098171  -2.285661
H    4.926365  -0.400849   2.146143
H    5.461573  -1.169835  -3.114458
H    6.283245   2.860724  -4.202770
H    5.880034   5.910402  -2.923180
H    3.209019   3.990270  -3.449034
H    6.599509   3.470463   3.561624
H    7.046789   6.163833   1.382259

