%chk=mol_7030.chk
# wB97XD/Def2SVP opt pop=full gfinput

C 7 H 12

1 2
C    1.707613  -0.234704   0.424414
C    4.502575   0.281626   0.061983
C    5.709184   2.217102   1.902633
C    8.111574   0.570357   1.837664
C    6.378563  -1.703872   1.179945
C    7.413452  -3.548925  -0.656623
C    9.332375  -5.058872   0.003628
H    1.105603  -1.825268  -0.751393
H    0.588593   1.417427  -0.119166
H    1.264038  -0.688975   2.392318
H    4.900948   0.764338  -1.921870
H    4.815495   2.303123   3.769531
H    5.922194   4.137385   1.172103
H    9.444625   1.117452   0.346236
H    9.135352   0.429195   3.626800
H    5.630477  -2.648243   2.875445
H    6.583862  -3.681432  -2.528926
H   10.189687  -4.973551   1.866520
H   10.094709  -6.422650  -1.325435

