%chk=mol_1705.chk
# wB97XD/Def2SVP opt pop=full gfinput

C 5 H 12 N 2

1 2
C    5.605230  -1.927029  -1.116866
N    4.428139   0.292926   0.035130
C    3.270133  -0.379759   2.453223
C    6.244430   2.389899   0.317077
C    6.741863   4.110797  -1.892806
C    5.287322   5.084384   0.330815
N    6.436332   6.968838   2.001107
H    6.388276  -1.452576  -2.974221
H    4.205774  -3.421973  -1.424419
H    7.135757  -2.689194   0.052704
H    1.840102  -1.855144   2.196013
H    2.298757   1.254986   3.273289
H    4.670212  -1.052143   3.824050
H    7.864077   1.971514   1.514616
H    5.703761   3.790431  -3.629276
H    8.656552   4.772428  -2.183919
H    3.270530   5.356013   0.032900
H    8.315702   6.636435   2.253158
H    5.638073   6.878320   3.752580

