%chk=mol_3421.chk
# wB97XD/Def2SVP opt pop=full gfinput

C 7 H 12

1 2
C    4.720177  -1.058625   2.591892
C    5.194725   0.069863  -0.013493
C    6.041436   2.797777   0.073926
C    4.356140   4.700183   0.077063
C    8.751341   3.311726   0.031332
C   10.298100   2.328898   2.200511
C    9.810589   4.633439  -1.859925
H    3.973357  -2.979021   2.404355
H    3.341905   0.058166   3.657073
H    6.456646  -1.169608   3.706962
H    3.440530  -0.068427  -1.113691
H    6.582710  -1.083739  -1.033907
H    2.338064   4.336865   0.064100
H    4.947303   6.664497   0.108584
H    9.440864   2.855263   4.009999
H   12.218686   3.102666   2.186716
H   10.459124   0.268398   2.113942
H    8.699316   5.340933  -3.433103
H   11.822921   5.026785  -1.895187

