%chk=mol_0497.chk
# wB97XD/Def2SVP opt pop=full gfinput

C 4 H 8 N 2

1 2
C    1.899269  -0.137421  -0.397617
N    4.574970   0.024018   0.235025
C    5.594912   2.618556   0.000000
C    4.635876   4.310862   2.147239
C    8.323677   2.618556   0.000000
N   10.498771   2.618556   0.000000
H    1.302399  -2.116739  -0.321820
H    1.523856   0.559019  -2.309170
H    0.723633   0.897903   0.949909
H    5.553640  -1.133685  -0.961757
H    4.965690   3.425072  -1.804556
H    5.125731   3.530689   4.002062
H    2.584767   4.555298   2.073823
H    5.479374   6.198510   2.028413

