%chk=mol_3276.chk
# wB97XD/Def2SVP opt pop=full gfinput

C 7 H 14

1 2
C    1.853651  -0.020598   0.225766
C    4.712089   0.015345   0.063022
C    6.093479   2.012596   1.697806
C    8.155643  -0.008957   2.267879
C    9.003544  -0.075702   5.022004
C   10.418740   0.066348   0.471090
C    6.138756  -2.040791   1.582778
H    1.089805  -1.664679  -0.771840
H    1.054826   1.677604  -0.645285
H    1.199069  -0.101686   2.187169
H    5.318634   0.079520  -1.922135
H    5.018829   2.625340   3.361596
H    6.726858   3.698213   0.681624
H    7.389528  -0.128634   6.316617
H   10.126513   1.599181   5.488521
H   10.162607  -1.749112   5.396529
H    9.834135   0.111362  -1.513047
H   11.617035  -1.601033   0.730700
H   11.575914   1.746466   0.819045
H    6.808721  -3.651291   0.473036
H    5.079697  -2.770471   3.208623

