%chk=mol_6036.chk
# wB97XD/Def2SVP opt pop=full gfinput

C 4 H 8 N 2 O 1

1 2
O    1.562199  -0.372125  -0.218547
C    4.252526   0.080030  -0.199064
C    5.235770   2.135655   1.624182
N    7.510716   0.520695   2.062863
C    5.902352  -1.703210   1.419468
N    8.440122   0.538383   4.443918
C   10.628916   1.612220   4.560797
H    1.355538  -1.935590  -1.161482
H    4.960966   0.311162  -2.135844
H    4.043504   2.439674   3.293944
H    5.647843   3.964003   0.751960
H    6.884896  -3.188062   0.369026
H    4.908639  -2.561486   3.024960
H   11.603448   1.756330   6.394776
H   11.615541   2.416431   2.908326

