%chk=mol_5374.chk
# wB97XD/Def2SVP opt pop=full gfinput

C 4 H 9 N 1 O 2

1 2
C    4.862927  -2.178930   0.315452
O    7.213614  -0.925286   0.690544
C    7.077629   1.675431  -0.059470
C    9.609994   2.941812   0.425396
C   11.570094   2.078623  -1.459190
N   12.200979  -0.414398  -1.311583
O   12.581570   3.494935  -2.986693
H    5.097158  -4.161933   0.840834
H    4.298635  -2.083404  -1.670764
H    3.403397  -1.342273   1.515352
H    5.614093   2.616137   1.065919
H    6.567347   1.789571  -2.064242
H   10.306774   2.522973   2.329635
H    9.414332   4.995170   0.243964
H   11.023131  -1.626997  -0.400924
H   13.386404  -1.111272  -2.636640

