%chk=mol_4240.chk
# wB97XD/Def2SVP opt pop=full gfinput

C 5 H 7 N 1 O 1

1 2
C    1.230476   0.381573   0.568581
C    3.394043   1.048212   1.697787
C    5.439425   2.270260   0.216827
C    5.139602   5.138298  -0.288845
N    7.704640   5.465749   0.722593
C    7.717963   3.145166   1.843352
O    9.014164   2.354637   3.546109
H   -0.260990  -0.540197   1.637126
H    0.889834   0.711558  -1.427801
H    3.696040   0.667697   3.694906
H    6.038960   1.153999  -1.424797
H    3.724480   6.151852   0.830780
H    4.988197   5.672807  -2.279577
H    8.408639   6.919005   1.744123

