%chk=mol_5368.chk
# wB97XD/Def2SVP opt pop=full gfinput

C 4 H 7 N 1 O 2

1 2
C    3.692525   2.542324   4.922056
O    3.442930   4.140900   2.753728
C    5.424365   4.171457   1.116280
C    4.882844   5.892922  -1.041504
C    2.739215   7.207756  -1.339532
N    7.434958   2.835251   1.512745
O    9.234336   3.153613  -0.403438
H    2.032457   2.831698   6.116722
H    5.374060   3.043385   6.016378
H    3.746231   0.558546   4.343838
H    6.369398   6.047162  -2.442698
H    1.198464   7.111852   0.011017
H    2.485462   8.422792  -2.970725
H   10.607033   2.061219   0.161534

