%chk=mol_5139.chk
# wB97XD/Def2SVP opt pop=full gfinput

C 4 H 10 N 2 O 1

1 2
C    1.792519  -1.401591  -1.372489
N    4.020204  -0.911339   0.163008
C    5.371716  -3.123831   1.065673
C    5.282389   1.398435   0.176652
O    7.392269   1.661674   1.140941
C    3.999020   3.679127  -1.075254
N    4.098155   3.463320  -3.845555
H    0.559019   0.246231  -1.487555
H    0.709422  -2.951110  -0.534358
H    2.402409  -1.937026  -3.273894
H    4.046641  -4.389210   2.022139
H    6.871857  -2.617649   2.392733
H    6.211416  -4.092410  -0.556808
H    5.013028   5.386117  -0.487323
H    2.053943   3.869611  -0.405063
H    5.948045   3.248099  -4.357274
H    3.537473   5.138430  -4.611631

