%chk=mol_1217.chk
# wB97XD/Def2SVP opt pop=full gfinput

C 5 H 12 N 2

1 2
C    1.819504  -0.126517   0.147928
C    4.714281  -0.011508  -0.016422
C    5.891108  -1.322298   2.296376
C    5.577168  -1.438951  -2.397703
C    5.532514   2.784398  -0.060849
N    6.614533   3.841794  -2.138622
N    5.180590   4.279096   1.847736
H    0.947112   0.850830  -1.456336
H    1.114976   0.778208   1.871604
H    1.144796  -2.083631   0.147077
H    5.201622  -0.523171   4.076593
H    7.952648  -1.125162   2.289517
H    5.443281  -3.344154   2.320281
H    4.691056  -0.676371  -4.106072
H    5.074009  -3.445405  -2.291104
H    7.629901  -1.318915  -2.644539
H    6.029077   3.231923  -3.851678
H    6.663817   5.756144  -1.997781
H    4.344102   3.343039   3.319191

