%chk=mol_1193.chk
# wB97XD/Def2SVP opt pop=full gfinput

C 6 H 11 N 1

1 2
C    1.791309  -0.143506   0.024585
C    4.663636  -0.080276   0.031048
C    5.664001   2.629459   0.012850
C    8.554280   2.682013   0.006406
C    9.559104   5.389839   0.011017
C   12.333467   5.424062  -0.005669
N   14.528195   5.453995  -0.019540
H    1.118170  -2.099127   0.045221
H    1.033472   0.778359  -1.665132
H    1.024439   0.817042   1.688451
H    5.369317  -1.102901  -1.626506
H    5.361021  -1.075802   1.708558
H    4.953785   3.642239   1.676017
H    4.948021   3.623342  -1.659274
H    9.263287   1.674316  -1.662241
H    9.272603   1.665624   1.665586
H    8.867011   6.393416   1.685806
H    8.846356   6.407986  -1.645952

