%chk=mol_5865.chk
# wB97XD/Def2SVP opt pop=full gfinput

C 4 H 9 N 1 O 2

1 2
N    1.361926   0.406329   0.906993
C    3.523111  -0.930501   1.332692
O    3.461581  -3.016381   2.342977
C    5.925331   0.406272   0.545866
C    8.185046  -1.387513   0.366078
C    8.119586  -3.051794  -1.991393
O    5.842825  -4.447659  -2.200529
H    1.319823   1.874230  -0.315962
H   -0.285443  -0.498585   1.261543
H    6.317487   1.839025   1.992527
H    5.635031   1.383128  -1.254797
H    8.261259  -2.592043   2.051354
H    9.934101  -0.276807   0.335578
H    9.698850  -4.385166  -1.964786
H    8.303797  -1.890954  -3.694679
H    5.360756  -5.029828  -0.511398

