%chk=mol_3895.chk
# wB97XD/Def2SVP opt pop=full gfinput

C 5 H 9 N 1 O 1

1 2
C    0.299389   0.961757  -0.705114
C    2.638039  -0.403116   0.061926
C    4.023076  -2.054605  -1.790100
C    5.164262   0.420237  -0.964271
O    7.273424   0.221608   0.742946
N    7.435884   2.544554   1.996685
C    9.275796   2.436027   3.586984
H    0.040969   2.645465   0.468520
H   -1.351438  -0.258685  -0.452911
H    0.359218   1.560914  -2.685187
H    2.564321  -0.997719   2.020382
H    3.326428  -2.183106  -3.710836
H    4.867784  -3.782155  -1.086611
H    5.214264   1.927105  -2.355128
H    9.720260   4.086004   4.774450
H   10.465190   0.742001   3.837996

