%chk=mol_7065.chk
# wB97XD/Def2SVP opt pop=full gfinput

C 6 H 15 N 1

1 2
C    1.842823   1.412835   0.236575
C    4.640260   1.060514  -0.314828
C    6.072314   3.564345  -0.168639
C    8.887589   3.195924  -0.712011
C   10.326541   5.700416  -0.571888
C   13.138585   5.316518  -1.099972
N   14.479157   7.718738  -0.944258
H    0.855876  -0.401340   0.120810
H    0.974777   2.704009  -1.126957
H    1.552391   2.181254   2.135315
H    4.861736   0.232039  -2.200624
H    5.435438  -0.286180   1.043696
H    5.832243   4.393292   1.715493
H    5.271089   4.903707  -1.532020
H    9.128152   2.362460  -2.594991
H    9.688116   1.858262   0.654715
H   10.073733   6.537961   1.307898
H    9.526998   7.031709  -1.945738
H   13.409573   4.500440  -2.983405
H   13.949183   4.002799   0.278905
H   13.778655   8.938556  -2.260018
H   16.331940   7.446296  -1.393805

