%chk=mol_1300.chk
# wB97XD/Def2SVP opt pop=full gfinput

C 5 H 10 N 2

1 2
C    1.687733   3.339505   2.869757
C    3.172661   3.330756   0.821067
C    5.244519   1.432318   0.357971
C    7.863774   2.646939   0.092502
N    8.702359   3.701010   2.483043
C   11.065216   4.623461   2.916320
N   13.085219   4.260255   1.628339
H    0.202371   4.740283   3.085979
H    1.897531   1.950027   4.366174
H    2.864882   4.749902  -0.638349
H    4.797788   0.422958  -1.395695
H    5.285621   0.017291   1.872378
H    7.831970   4.131338  -1.351797
H    9.191325   1.184518  -0.531485
H    7.302677   4.539462   3.499603
H   11.154581   5.807903   4.630547
H   12.717630   3.096052   0.137553

