%chk=mol_4269.chk
# wB97XD/Def2SVP opt pop=full gfinput

C 5 H 11 N 1 O 1

1 2
C    4.973665  -1.922059  -0.979710
C    3.985111   0.670569  -0.234591
C    6.076868   2.377597   0.620813
N    7.088249   4.316191  -1.076161
C    5.558705   5.146726   1.087065
C    6.814806   6.501848   3.237044
O    9.473934   6.091721   3.199854
H    3.421519  -3.126495  -1.622954
H    5.885684  -2.851786   0.628202
H    6.365618  -1.778497  -2.502527
H    2.624017   0.454763   1.311980
H    2.955210   1.494717  -1.833582
H    7.419594   1.448192   1.862212
H    6.064301   4.415648  -2.712003
H    3.688405   5.878277   0.688843
H    6.071331   5.841465   5.049197
H    6.478869   8.536403   3.089589
H    9.864087   5.684674   1.437042

