%chk=mol_6552.chk
# wB97XD/Def2SVP opt pop=full gfinput

C 3 H 7 N 1 O 2 S 1

1 2
C    1.944585   0.138914  -0.267472
C    4.724674  -0.073114   0.157943
C    5.923706  -2.260169   0.637027
S    6.461011   2.725287   0.121453
N    9.173770   2.073804  -1.421717
O    5.227058   4.572268  -1.470264
O    7.256378   3.355549   2.658145
H    1.100954   1.447001   1.095342
H    0.992975  -1.686618  -0.053952
H    1.551767   0.831725  -2.176435
H    4.904708  -4.038855   0.708288
H    7.946374  -2.335626   0.978784
H   10.646811   2.547823  -0.267169
H    9.196050   3.095919  -3.059410

