%chk=mol_4727.chk
# wB97XD/Def2SVP opt pop=full gfinput

C 4 H 10 N 2 O 1

1 2
C    2.586978  -0.091671  -0.966633
C    5.329614  -0.371445  -0.167656
N    6.625587   2.016980  -0.374336
C    9.115416   2.487560   0.139594
N   10.709249   0.839870   0.972377
C   10.057482   5.190379  -0.334916
O    8.053390   6.947238   0.038210
H    1.595099  -1.896265  -0.783424
H    2.449387   0.526138  -2.936389
H    1.611464   1.306689   0.205186
H    6.253368  -1.784468  -1.367538
H    5.406960  -1.043393   1.789741
H    5.634370   3.513813  -1.074517
H    9.825177  -0.860959   1.185728
H   10.703598   5.331069  -2.293693
H   11.621702   5.650281   0.934942
H    7.660080   6.862994   1.834338

