%chk=mol_1503.chk
# wB97XD/Def2SVP opt pop=full gfinput

C 6 H 13 N 1

1 2
C    4.348638  -1.280460   2.740084
C    5.162373  -0.437850   0.102593
N    3.051057  -0.669587  -1.666266
C    6.049826   2.260717   0.131090
C    8.446206   3.124058   0.039287
C   10.772553   1.495151  -0.047810
C    8.978315   5.921117   0.023811
H    5.934402  -1.170496   4.067730
H    3.688065  -3.243073   2.718333
H    2.816788  -0.102933   3.488264
H    6.652535  -1.700829  -0.571245
H    1.505923   0.218528  -0.940158
H    2.561467  -2.525071  -1.815290
H    4.536628   3.654919   0.223933
H   10.380134  -0.514100   0.212783
H   12.081945   2.047726   1.457281
H   11.735218   1.726662  -1.864328
H    7.246363   7.053025   0.063551
H   10.026773   6.439790  -1.683028
H   10.108674   6.445100   1.675752

