%chk=mol_0558.chk
# wB97XD/Def2SVP opt pop=full gfinput

C 4 H 12 N 2

1 2
N    1.854256  -0.050305   0.035565
C    4.609760  -0.062040   0.025833
C    5.618062   2.642045  -0.010072
C    8.509418   2.677288  -0.000283
C    9.516907   5.380995  -0.034847
N   12.272845   5.369411  -0.052515
H    1.210370  -1.864895  -0.020163
H    1.204719   0.797748  -1.567452
H    5.286490  -1.103392  -1.630210
H    5.285262  -1.051557   1.713396
H    4.908904   3.677577   1.641227
H    4.921527   3.630712  -1.695065
H    9.217555   1.643098  -1.652055
H    9.205707   1.688168   1.683765
H    8.845260   6.420382   1.625108
H    8.837153   6.374217  -1.718895
H   12.927011   4.518052   1.547062
H   12.916921   7.184191   0.004970

