%chk=mol_0414.chk
# wB97XD/Def2SVP opt pop=full gfinput

C 4 H 8 N 2

1 2
C    2.943721  -1.101597  -2.119460
C    4.167583  -0.192299  -0.097756
C    5.537540   2.288194  -0.018973
N    8.196253   1.863572   0.619225
N    9.592608   3.970541   1.035211
C   11.873603   3.484164   1.754157
H    1.976370  -2.909328  -2.029320
H    2.874368  -0.074228  -3.891740
H    4.168452  -1.282198   1.644572
H    4.649747   3.480516   1.423965
H    5.397681   3.283890  -1.831428
H    8.965843   0.769440  -0.776526
H   13.180235   5.053260   2.153192
H   12.617569   1.552712   2.015034

