%chk=mol_0096.chk
# wB97XD/Def2SVP opt pop=full gfinput

C 3 H 7 N 1 O 1

1 2
C    1.736280  -0.404250  -0.464759
C    4.572741  -0.030103  -0.344327
O    5.070532   2.529606   0.344516
N    7.696496   2.867773   0.469918
C    8.150162   5.175317   1.112368
H    1.270198  -2.351556  -0.975911
H    0.891592   0.872260  -1.857374
H    0.865003   0.034865   1.360130
H    5.420415  -0.426681  -2.191251
H    5.395811  -1.299092   1.069547
H   10.113871   5.828331   1.316875
H    6.644239   6.568499   1.479183

