%chk=mol_2935.chk
# wB97XD/Def2SVP opt pop=full gfinput

C 6 H 12 O 1

1 2
C    2.239779   0.328548   0.569771
C    5.007264   0.531278  -0.245268
C    5.341972  -0.547586  -2.921781
C    8.094094  -0.641675  -3.775314
O    8.248900  -1.769615  -6.214213
C    5.844450   3.253787  -0.090631
C    7.716564   4.078879   1.400533
H    1.969095   1.076823   2.482684
H    1.622046  -1.647955   0.577595
H    0.990387   1.378404  -0.706663
H    6.130385  -0.619868   1.065333
H    4.240904   0.548285  -4.298655
H    4.558662  -2.468001  -2.998088
H    9.250530  -1.754214  -2.469154
H    8.909341   1.252076  -3.915947
H    7.602954  -3.483880  -6.072881
H    4.852193   4.612292  -1.276510
H    8.769860   2.809456   2.620086
H    8.236069   6.063602   1.427896

