%chk=mol_6447.chk
# wB97XD/Def2SVP opt pop=full gfinput

C 4 H 5 N 1 O 1 S 1

1 2
C    1.813891   0.076326   0.029347
C    4.605471   0.021694  -0.093466
C    6.252537   1.941467  -0.199763
N    8.798301   1.448532  -0.340548
S    9.289496  -1.663715  -0.000378
C    6.027584  -2.379808  -0.014003
O    5.117265  -4.492087   0.086001
H    1.097194   2.016980   0.051949
H    1.140658  -0.868575   1.741685
H    0.998097  -0.883541  -1.611124
H    5.717083   3.920917  -0.191032
H    9.942738   2.708450   0.559605

