%chk=mol_6192.chk
# wB97XD/Def2SVP opt pop=full gfinput

C 5 H 8 N 2

1 2
C    1.789098  -0.081523  -0.018859
C    4.571739   0.163008  -0.000227
C    6.140816   2.238418   0.014192
C    8.619419   1.240719   0.028157
C   11.045790   2.638152   0.047734
N    8.603904  -1.287470   0.023187
N    6.140325  -1.889764   0.005518
H    0.880839   1.777080  -0.003666
H    1.137180  -1.124973   1.644232
H    1.156947  -1.088218  -1.711922
H    5.583952   4.203582   0.014626
H   10.729695   4.682137   0.023074
H   12.180608   2.146483  -1.610746
H   12.133667   2.179175   1.746523
H    5.663604  -3.746665  -0.001550

