%chk=mol_0775.chk
# wB97XD/Def2SVP opt pop=full gfinput

C 5 H 10 O 1

1 2
C    2.017302   0.450322   0.145717
C    4.837529  -0.019389  -0.154296
O    5.275700  -1.326682  -2.465734
C    6.306772   2.404261  -0.190409
C    7.394479   3.474092   2.216668
C    9.121916   2.371682   0.249368
H    1.606305   1.434510   1.916976
H    0.977820  -1.339362   0.118958
H    1.281461   1.593001  -1.416482
H    5.487443  -1.253833   1.376288
H    4.821750  -0.190919  -3.835086
H    5.598314   3.731755  -1.581398
H    7.149004   2.430660   3.963247
H    7.385484   5.509818   2.452260
H   10.278107   3.656866  -0.850244
H   10.022503   0.574061   0.648422

