%chk=mol_3807.chk
# wB97XD/Def2SVP opt pop=full gfinput

C 5 H 7 N 1 O 1

1 2
C   -2.449690   1.226054   0.093976
C   -1.931621  -1.507586  -0.280303
N   -0.580826  -3.013055   1.593908
C    0.848865  -2.090585  -0.583453
C    2.155970   0.499719  -0.538515
O    1.868750   1.979016   1.720199
C    0.064931   2.405432  -0.252751
H   -3.770684   1.911911  -1.342480
H   -3.242392   1.622009   1.962840
H   -3.304847  -2.492908  -1.427745
H   -0.108924  -1.953467   3.143616
H    1.403537  -3.473638  -1.984269
H    3.715504   0.894974  -1.794163
H    0.100231   4.180679  -1.250659

