%chk=mol_6090.chk
# wB97XD/Def2SVP opt pop=full gfinput

C 4 H 6 N 2 O 1

1 2
O    1.763757   0.083526  -0.326469
C    4.069733   0.119204  -0.135399
N    5.477730   2.304313  -0.310747
N    8.028180   2.440959   0.494711
C    9.493701   0.210100  -0.258344
C    8.054447  -2.195748   0.119865
C    5.523839  -2.246109   0.248083
H    4.482185   3.928382  -0.551063
H    8.024684   2.534954   2.425841
H   11.226674   0.158397   0.876247
H   10.069236   0.370500  -2.240799
H    9.120064  -3.939909   0.255567
H    4.445883  -3.968368   0.482107

