%chk=mol_5581.chk
# wB97XD/Def2SVP opt pop=full gfinput

C 6 H 9 N 1

1 2
C    1.968641   0.079312   1.035343
C    4.328909  -0.082827   0.135720
C    5.742934  -2.486728  -0.354191
C    7.728111  -1.751134  -2.240837
C    9.947632  -0.145925  -1.492336
N    7.740224   1.017825  -2.679424
C    5.891202   2.081306  -0.859977
H    1.019753   1.889707   1.212051
H    0.923717  -1.594891   1.593058
H    4.506619  -3.954800  -1.124784
H    6.628800  -3.186343   1.380218
H    7.829324  -2.931589  -3.903815
H   10.303505   0.225879   0.488702
H   11.627258  -0.237104  -2.660697
H    6.859045   3.059618   0.689769
H    4.698729   3.456536  -1.845223

