%chk=mol_2566.chk
# wB97XD/Def2SVP opt pop=full gfinput

C 5 H 8 O 2

1 2
C    1.799454  -0.143109   0.161572
C    4.575008   0.100533  -0.533942
O    5.417032  -2.205556  -1.736337
C    6.399426  -1.265852  -3.950699
C    6.115853   1.200316  -4.201013
C    6.930703   2.867017  -6.298835
O    4.906750   2.285661  -2.145765
H    1.133855   1.556945   1.133760
H    1.478881  -1.793709   1.365044
H    0.639786  -0.376547  -1.537859
H    5.714966   0.382594   1.175580
H    7.241034  -2.618707  -5.207197
H    7.702732   4.638522  -5.560784
H    5.326212   3.317055  -7.523170
H    8.398377   1.970266  -7.448185

