%chk=mol_0181.chk
# wB97XD/Def2SVP opt pop=full gfinput

C 3 H 6 N 2

1 2
C    1.831504  -0.046638  -0.018708
N    4.581471   0.027193   0.025492
C    5.510026   2.647261   0.056238
C    8.301850   2.786817   0.010431
N   10.489568   2.921006  -0.070600
H    1.195271  -2.014429  -0.022261
H    1.074177   0.869633  -1.712092
H    1.031469   0.862603   1.658575
H    5.273129  -0.871957  -1.534798
H    4.827589   3.604426   1.761999
H    4.769915   3.677501  -1.582324

