%chk=mol_4087.chk
# wB97XD/Def2SVP opt pop=full gfinput

C 5 H 11 N 1 O 1

1 2
C    2.246280  -0.195114  -0.225936
C    5.038747   0.147833  -0.290035
N    6.498164  -0.735009  -2.452411
C    6.352390   2.032249  -2.026486
C    4.876325   3.574549  -3.909239
C    8.755347   3.280602  -1.094926
O   10.780302   2.572749  -2.717370
H    1.368842   1.343973   0.841136
H    1.775738  -1.974140   0.720042
H    1.391122  -0.246080  -2.108311
H    5.873760  -0.206415   1.550256
H    5.345789  -1.264359  -3.910297
H    3.352015   2.504794  -4.809618
H    6.121333   4.255928  -5.416049
H    4.036191   5.218157  -2.974637
H    9.236735   2.688230   0.828191
H    8.591206   5.342539  -1.100709
H   10.516534   0.767928  -3.013641

