%chk=mol_4671.chk
# wB97XD/Def2SVP opt pop=full gfinput

C 5 H 11 N 1 O 1

1 2
C    1.771316   0.207038   0.377170
C    4.446866  -0.838547   0.475342
N    6.264102   1.179813  -0.038361
C    8.846394   0.189880  -0.051023
C   10.605654   2.283224  -0.757005
C   12.070323   3.738955   1.202848
O   13.215460   1.758428  -0.246118
H    0.404118  -1.299603   0.758158
H    1.344748   0.994525  -1.489614
H    1.490219   1.693629   1.790062
H    4.623461  -2.344451  -0.934545
H    4.788641  -1.662298   2.345169
H    6.110883   2.537694   1.319615
H    9.030169  -1.320900  -1.457584
H    9.332337  -0.594281   1.804726
H   10.157694   3.165310  -2.546104
H   11.722954   3.373596   3.185606
H   12.622274   5.661261   0.768911

