%chk=mol_3511.chk
# wB97XD/Def2SVP opt pop=full gfinput

C 5 H 4 O 2

1 2
O    1.982436  -0.557696  -1.557871
C    3.944614  -0.099116  -0.510264
C    6.226289  -1.465615   0.947887
O    6.133938   0.939685   2.445192
C    5.953469   2.139019  -0.117352
C    8.198236   1.243232  -1.554527
C    8.382334  -1.187976  -0.836279
H    5.899801  -3.178595   2.028111
H    5.348775   4.099156  -0.121339
H    9.377728   2.302178  -2.831547
H    9.748663  -2.593233  -1.385566

