%chk=mol_0889.chk
# wB97XD/Def2SVP opt pop=full gfinput

C 5 H 2 O 1

1 2
O    1.751927  -0.158964   0.000000
C    4.061872  -0.134152   0.000000
C    5.435495   2.212302   0.000000
C    6.586716   4.166090   0.000000
C    8.057169   6.659735   0.000000
C    9.206444   8.614506   0.000000
H    5.222617  -1.861437   0.000000
H   10.221831  10.353640   0.000000

