%chk=mol_2768.chk
# wB97XD/Def2SVP opt pop=full gfinput

C 6 H 12 O 1

1 2
C    1.415688   1.030562   1.272920
C    4.221648   1.295010   1.457829
C    5.664020   2.418528  -0.297859
C    8.500328   2.654442  -0.102442
C    9.481002   5.387439   0.070770
C    8.777494   7.030859  -2.184127
O    8.607910   6.568216   2.332489
H    0.898659  -0.970374   1.206231
H    0.652579   1.954978  -0.413037
H    0.519920   1.879314   2.932231
H    5.092472   0.500777   3.144372
H    4.786733   3.179067  -1.995400
H    9.338951   1.728646  -1.756992
H    9.162564   1.616793   1.567282
H   11.546415   5.319012   0.203013
H    6.736893   7.361693  -2.285510
H    9.410439   6.180330  -3.960545
H    9.656557   8.897473  -2.003695
H    6.775065   6.404754   2.365049

