%chk=mol_1205.chk
# wB97XD/Def2SVP opt pop=full gfinput

C 5 H 10 N 2

1 2
C    2.086428  -0.556071   1.349907
C    4.883922  -0.462945   0.961285
C    6.136583   1.666020   0.397957
C    8.928596   1.871358   0.014778
C   10.496975  -0.511473  -0.267906
N    9.862632   4.159816  -0.018274
N   12.393977   4.365475  -0.278735
H    1.663526  -1.236901   3.256130
H    1.230816  -1.857204  -0.010526
H    1.199088   1.297467   1.115486
H    5.864387  -2.250399   1.193173
H    5.140074   3.455137   0.228921
H    9.376726  -2.075316  -1.016125
H   11.264242  -1.039274   1.576920
H   12.054847  -0.216714  -1.593398
H   12.859227   6.227932  -0.504557
H   13.294469   3.817965   1.341233

