%chk=mol_2544.chk
# wB97XD/Def2SVP opt pop=full gfinput

C 5 H 6 O 2

1 2
C    2.085105   0.028346   0.306230
C    4.542354   0.071073  -0.254584
O    5.928109   2.269259  -0.509735
C    8.216756   1.441124  -1.737679
C    8.741836  -1.316988  -1.070398
C    6.115758  -2.203931  -0.635817
O    5.414046  -4.392139  -0.505728
H    1.076350  -1.747241   0.502648
H    1.042316   1.770125   0.578181
H    7.963930   1.672786  -3.782892
H    9.777122   2.666007  -1.149691
H    9.675473  -2.318033  -2.614172
H    9.815899  -1.488670   0.687237

