%chk=mol_4835.chk
# wB97XD/Def2SVP opt pop=full gfinput

C 5 H 9 N 1 O 1

1 2
C    5.961897  -2.290083   0.543202
C    4.631549   0.195398   0.122700
O    2.335985   0.248820  -0.266414
C    6.115570   2.624357   0.162781
C    4.529919   4.966276  -0.075797
C    8.642606   2.609882   0.408615
N   10.281055   4.622232   0.482674
H    6.939736  -2.282600   2.362725
H    7.277978  -2.665118  -1.003690
H    4.561742  -3.812258   0.583585
H    3.083901   5.013255   1.404879
H    3.587003   5.012480  -1.917524
H    5.629570   6.706695   0.102555
H    9.686509   0.848676   0.597853
H    9.584936   6.272436  -0.213936
H   12.048800   4.236275  -0.172192

