%chk=mol_6162.chk
# wB97XD/Def2SVP opt pop=full gfinput

C 4 H 5 N 1 O 2

1 2
O    1.633082   1.074290   0.902099
C    3.813222   0.415286   0.415815
C    6.070821   2.192857  -0.121472
N    5.347887   4.853251  -0.624082
C    6.311194   5.803443   1.810868
C    7.191277   3.103081   2.369150
O    8.311129   2.076828   4.087950
H    4.268816  -1.616188   0.292605
H    7.462812   1.423493  -1.438176
H    3.429966   5.070192  -0.808954
H    7.844386   7.174780   1.647898
H    4.858618   6.491852   3.106389

