%chk=mol_6691.chk
# wB97XD/Def2SVP opt pop=full gfinput

C 4 H 5 N 1 O 1 S 1

1 2
O    3.693848  -0.808803  -2.431907
C    4.608191  -0.092049  -0.010942
C    5.455677   2.584975  -0.008844
C    3.907141   4.677053  -0.268965
S    5.703704   7.360975  -0.136646
N    8.442748   5.892072   0.257702
C    8.016068   3.415434   0.258155
H    3.226065  -2.580837  -2.321510
H    6.164400  -1.358694   0.497754
H    3.085715  -0.357952   1.366801
H    1.884019   4.751357  -0.536418
H    9.648771   2.199925   0.471241

