%chk=mol_1975.chk
# wB97XD/Def2SVP opt pop=full gfinput

C 6 H 11 N 1

1 2
N    4.544016  -0.805269   2.775271
C    4.804780   0.019634   0.166428
C    5.751722   2.667462   0.023565
C    7.910639   3.451925  -1.041560
C    8.261184   6.238232  -0.794630
C    5.640417   7.140103   0.006444
C    4.306894   4.837605   1.129546
H    3.966422  -2.642858   2.793110
H    3.140026   0.202787   3.618807
H    2.978379  -0.121169  -0.798107
H    6.105554  -1.263112  -0.809275
H    9.292255   2.225039  -1.917486
H    9.686642   6.658620   0.644245
H    8.833487   7.104841  -2.581612
H    4.594038   7.811089  -1.655362
H    5.733316   8.716853   1.343047
H    2.311608   4.807690   0.587100
H    4.445543   4.831236   3.194034

