%chk=mol_2195.chk
# wB97XD/Def2SVP opt pop=full gfinput

C 6 H 10 O 1

1 2
C    3.161644  -0.144904  -0.015420
C    1.548895  -2.308735   1.002897
C   -0.793269  -2.890393  -0.581129
C   -2.834948  -0.929027  -0.388112
C   -2.546935   1.532776   0.135399
O   -0.357574   2.888919   0.348900
C    1.682423   2.024936  -1.187806
H    4.482752  -0.876266  -1.434057
H    4.319007   0.576177   1.546363
H    2.731542  -4.007277   1.128544
H    0.975325  -1.871944   2.950089
H   -1.585839  -4.673520   0.118486
H   -0.296876  -3.201328  -2.566343
H   -4.757745  -1.642739  -0.549589
H   -4.146569   2.762458   0.495052
H    2.965661   3.632639  -1.433131
H    1.012005   1.550634  -3.094332

