%chk=mol_4638.chk
# wB97XD/Def2SVP opt pop=full gfinput

C 4 H 7 N 1 O 2

1 2
C    1.455675  -6.273834  -2.926014
C    0.795631  -4.761222  -1.006128
C    1.357712  -1.994171  -0.871598
O    2.698510  -1.536555   1.432790
N    3.302466   1.065390   1.553884
C    2.166892   2.334587   3.493310
O    2.893398   4.382974   4.283971
H    0.986002  -8.271747  -2.894720
H    2.479869  -5.569514  -4.558133
H   -0.224367  -5.560670   0.588687
H   -0.420011  -0.931805  -0.855611
H    2.507818  -1.373793  -2.479415
H    5.125996   1.536744   1.196801
H    0.481124   1.366159   4.241302

