%chk=mol_1915.chk
# wB97XD/Def2SVP opt pop=full gfinput

C 5 H 8 N 2

1 2
N    2.665024   0.569658   1.046398
C    4.823356   0.001512   0.065744
C    5.508684  -2.718749  -0.467027
C    7.952780  -2.505021  -1.973743
C    8.726699   0.211895  -1.752513
C    7.289071   2.219124  -3.145260
N    6.725819   1.701283  -0.490441
H    2.643821   2.496725   1.284296
H    4.011208  -3.686497  -1.507718
H    5.822171  -3.685514   1.334921
H    9.404506  -3.775182  -1.227736
H    7.635419  -3.004627  -3.957767
H   10.590687   0.563346  -1.001725
H    8.179755   4.036285  -3.426017
H    5.795563   1.718800  -4.448189

