%chk=mol_3684.chk
# wB97XD/Def2SVP opt pop=full gfinput

C 5 H 8 O 2

1 2
O    4.716303  -2.528019   2.296074
C    4.061853  -0.314809   2.510974
C    5.624505   1.896491   1.639318
C    8.149463   1.144683   0.483033
C   10.010880   3.330510   0.088099
O   11.444956   2.586827   2.298304
C   10.152138   0.168639   2.343790
H    2.229593   0.175272   3.379076
H    5.896890   3.135868   3.276823
H    4.496698   2.931683   0.248423
H    7.926853  -0.044579  -1.198842
H    9.238890   5.237735   0.277185
H   11.167129   3.213895  -1.622840
H   11.370558  -1.340288   1.624635
H    9.495420  -0.309972   4.242265

