%chk=mol_4380.chk
# wB97XD/Def2SVP opt pop=full gfinput

C 4 H 8 N 2 O 1

1 2
C    2.096557  -0.029442   0.330759
C    4.909074   0.184343  -0.107110
C    6.312706  -2.254519  -0.212972
C    8.172763  -2.706371   1.434453
N    9.573353  -4.879953   1.635312
N    5.821453   2.438427  -0.429270
O    8.414515   2.397420  -0.948624
H    1.488178   1.419619   1.673598
H    1.599408  -1.885663   1.090032
H    1.110025   0.254641  -1.463007
H    5.668120  -3.641672  -1.568000
H    8.712450  -1.276038   2.815333
H    9.532837  -5.987408   0.064251
H   11.366060  -4.574309   2.265328
H    8.801645   4.187047  -1.151864

