%chk=mol_0046.chk
# wB97XD/Def2SVP opt pop=full gfinput

C 3 H 4 O 1

1 2
O    1.890293  -0.004101  -0.021732
C    4.573137   0.000000   0.000000
C    5.484023   2.572238   0.000000
C    6.234774   4.692322   0.000000
H    1.366385  -1.760639  -0.020031
H    5.239115  -1.023192  -1.669138
H    5.211921  -1.013479   1.685598
H    6.885822   6.597998  -0.000208

