%chk=mol_2006.chk
# wB97XD/Def2SVP opt pop=full gfinput

C 4 H 3 N 3

1 2
N    1.958248   0.147833  -0.401302
C    4.135817   0.092653  -0.163726
C    6.841508   0.045202   0.042500
N    8.387701  -1.333750  -1.806881
C    8.359733   1.437874  -1.934702
C   10.500793   2.879697  -1.096022
N   12.192286   4.083944  -0.394027
H    7.569657  -0.011130   1.958985
H    7.282173  -2.093987  -3.198286
H    7.374373   2.219559  -3.555047

