%chk=mol_6130.chk
# wB97XD/Def2SVP opt pop=full gfinput

C 4 H 6 N 2 O 1

1 2
O    4.044921  -1.647973  -0.992957
C    3.964249   0.340170   0.204109
C    5.929167   2.401011   0.018708
C    6.834516   2.849783  -2.699134
N    6.938224   5.659238  -3.052002
C    5.766102   6.527246  -1.085043
N    4.862039   4.864382   0.654148
H    2.508498   0.613972   1.671954
H    7.494805   1.972383   1.302418
H    5.561256   2.050050  -4.122381
H    8.719348   2.047707  -2.988205
H    5.490051   8.548044  -0.667187
H    4.944015   5.419394   2.486388

