%chk=mol_5468.chk
# wB97XD/Def2SVP opt pop=full gfinput

C 4 H 6 N 2 O 1

1 2
C    3.851148   0.846219  -2.841373
O    5.095004   3.129689  -2.132783
N    6.187568   2.692841   0.238748
C    8.723638   3.162740   0.276996
N   10.307511   3.203067  -1.559893
C    9.911783   3.682849   2.663720
C   10.907405   4.123647   4.656002
H    3.065003   1.103317  -4.734860
H    2.302669   0.433012  -1.533343
H    5.190171  -0.730625  -2.895495
H    5.202170   3.472750   1.692968
H    9.275002   2.843773  -3.160510
H   11.830139   4.519072   6.401371

