%chk=mol_6878.chk
# wB97XD/Def2SVP opt pop=full gfinput

C 5 H 6 N 2

1 2
C    2.049673  -0.042897   0.008164
C    4.869484  -0.048793   0.003685
N    6.239838  -2.081666   0.002646
C    8.666341  -1.234105  -0.000265
N   10.517592  -2.776631  -0.003042
C    8.712904   1.527447   0.000321
C    6.316051   2.303312   0.002759
H    1.331388  -1.979337  -0.017140
H    1.355860   0.955861  -1.661806
H    1.362360   0.909657   1.707575
H    9.707391  -4.540634  -0.002532
H   10.420271   2.625680  -0.000869
H    5.570648   4.190449   0.004139

