%chk=mol_3052.chk
# wB97XD/Def2SVP opt pop=full gfinput

C 6 H 10 O 1

1 2
C    3.309496  -1.620761  -2.085351
C    6.032743  -1.987236  -1.406826
C    7.275181  -4.157322  -1.832108
O    7.080615   0.038399  -0.119374
C    9.450917   0.994128  -0.740376
C   10.285892   0.952233  -3.450716
C   10.805095   2.125545   1.075991
H    3.092650   0.028384  -3.313767
H    2.184164  -1.311432  -0.375640
H    2.526318  -3.259985  -3.076134
H    6.374405  -5.738134  -2.775705
H    9.213190  -4.407446  -1.215321
H    8.739265   1.514389  -4.704360
H   10.944179  -0.929159  -4.000399
H   11.848507   2.269996  -3.781852
H   10.098847   2.209732   2.998466
H   12.620914   2.987638   0.689826

