%chk=mol_2767.chk
# wB97XD/Def2SVP opt pop=full gfinput

C 6 H 6 O 1

1 2
C    1.776324  -0.055879   0.010753
C    4.598063  -0.002268   0.011886
C    5.931888   2.150489   0.000000
C    8.588843   2.150489   0.000000
C   10.837919   2.150489   0.000000
C   13.558766   2.174924  -0.000000
O   14.731908   4.164862  -0.000019
H    1.109269  -2.013617  -0.032636
H    1.018279   0.905859  -1.655797
H    1.021548   0.831442   1.719386
H    5.560633  -1.818351   0.022166
H    4.972625   3.966497  -0.009146
H   14.478364   0.308347  -0.000019

