%chk=mol_3566.chk
# wB97XD/Def2SVP opt pop=full gfinput

C 6 H 12 O 1

1 2
O    1.923155   0.031332   0.162630
C    4.618037   0.037795   0.059583
C    5.510971  -2.517096  -0.948907
C    4.813775  -2.895741  -3.728562
C    5.751193  -0.716603  -5.366331
C    4.826436   1.831485  -4.380688
C    5.528507   2.217518  -1.605001
H    1.391481   1.660861   0.825754
H    5.307031   0.293210   1.995003
H    4.664600  -4.049683   0.159625
H    7.567616  -2.658353  -0.738958
H    5.623787  -4.676146  -4.409241
H    2.755863  -3.064399  -3.914398
H    7.823107  -0.726883  -5.406128
H    5.108761  -0.983716  -7.316283
H    5.643195   3.356059  -5.521213
H    2.768260   1.953183  -4.604147
H    7.586306   2.391751  -1.441918
H    4.700505   4.001476  -0.955105

