%chk=mol_0130.chk
# wB97XD/Def2SVP opt pop=full gfinput

C 5 H 10

1 2
C    1.679513  -0.135474  -0.160948
C    4.557774   0.037983   0.003402
C    5.790253  -1.482433  -2.120670
C    5.390463   2.761627  -0.122662
C    6.656560   3.943103   1.723562
H    0.784539   0.917330   1.380861
H    1.057434  -2.104664  -0.022828
H    0.971055   0.630432  -1.949725
H    5.147141  -0.792967   1.810433
H    5.241515  -0.769005  -3.985735
H    5.232293  -3.472674  -2.013012
H    7.854968  -1.399286  -1.989919
H    4.920941   3.810085  -1.829538
H    7.171435   2.986296   3.463339
H    7.206433   5.909552   1.525217

