%chk=mol_1117.chk
# wB97XD/Def2SVP opt pop=full gfinput

C 4 H 7 N 1 O 1

1 2
O    2.536957  -0.738713  -1.564410
C    3.863621   0.152085   0.132413
C    5.663868   2.455265  -0.113724
C    4.491066   5.122499   0.026475
C    6.816431   5.787816   1.629832
N    7.025473   3.076512   2.284906
H    3.826525  -0.738070   2.017623
H    6.959918   2.234261  -1.720501
H    2.693956   5.224337   1.053730
H    4.310503   6.134278  -1.765004
H    8.422415   6.506289   0.536361
H    6.470970   7.045126   3.231621
H    8.835773   2.422799   2.374327

