%chk=mol_6201.chk
# wB97XD/Def2SVP opt pop=full gfinput

C 5 H 3 N 1 O 1

1 2
O    2.410856  -0.610854   1.462421
C    4.123061  -0.058166  -0.002910
C    5.598711   2.368526   0.153691
C    8.328136   1.891295   0.040270
C   10.568161   1.525236  -0.043879
C   13.434157   1.067506  -0.152539
N   15.596307   0.720515  -0.246212
H    4.571984  -1.294991  -1.621857
H    5.106021   3.338050   1.913386
H    5.010439   3.564175  -1.428463

