%chk=mol_1195.chk
# wB97XD/Def2SVP opt pop=full gfinput

C 6 H 13 N 1

1 2
C    4.957054  -2.851786   1.804934
C    6.858138  -1.548442   0.088345
C    6.098638   1.131511  -0.454649
C    7.505104   3.150117   0.165464
C    6.777937   5.834038  -0.361939
N    8.719518   6.997070  -1.939350
C    8.123668   9.634957  -2.445513
H    5.538239  -4.804478   2.160089
H    3.075775  -2.892698   0.944315
H    4.811507  -1.884888   3.628387
H    6.986695  -2.578588  -1.704457
H    8.734200  -1.626431   0.965499
H    4.307536   1.396942  -1.428028
H    9.300117   2.885366   1.134667
H    6.629386   6.832211   1.447738
H    4.930050   5.928713  -1.294311
H    8.803573   6.036636  -3.607695
H    8.057887  10.736403  -0.694871
H    6.318073   9.831640  -3.437374
H    9.597712  10.456988  -3.641389

