%chk=mol_4134.chk
# wB97XD/Def2SVP opt pop=full gfinput

C 5 H 5 N 1 O 1

1 2
C    2.017679  -0.089856  -0.293134
C    4.491879   0.037039   0.118278
N    6.046708  -1.978694   0.438757
C    8.506300  -1.225412   0.829174
O   10.356531  -2.538299   1.178414
C    8.469413   1.566885   0.740357
C    6.061958   2.236094   0.316605
H    1.040389  -1.887515  -0.403853
H    0.891422   1.606305  -0.532222
H    5.531361  -3.812560   0.406575
H   10.114173   2.730446   0.981902
H    5.385020   4.152352   0.146359

