%chk=mol_4861.chk
# wB97XD/Def2SVP opt pop=full gfinput

C 5 H 8 N 2

1 2
C    3.938000  -0.269437  -0.137024
C    1.566092  -1.726303   0.400622
C   -0.758385  -2.632237  -0.877362
C   -2.919325  -0.827114  -0.186081
N   -2.657049   1.416482   0.834579
N   -0.251466   2.219521   1.464028
C    1.534892   1.103581  -0.306627
H    4.942616  -0.703432  -1.868826
H    5.178832   0.168545   1.433527
H    1.437855  -2.266783   2.388255
H   -1.272863  -4.526858  -0.224934
H   -0.570981  -2.696960  -2.937447
H   -4.841649  -1.449873  -0.691394
H   -0.180771   4.149650   1.503485
H    1.177885   1.710316  -2.248358

