%chk=mol_3416.chk
# wB97XD/Def2SVP opt pop=full gfinput

C 5 H 10 O 2

1 2
C    2.456720  -0.282174  -0.846919
O    4.941029  -0.314620   0.191202
C    6.072181   2.008646   0.090556
C    8.588957   2.319053   0.000000
C   10.415887   0.143827  -0.073057
C    9.748757   4.908620  -0.090367
O   11.251184   5.303233   2.096670
H    1.721692  -2.214230  -0.815001
H    2.487881   0.369895  -2.811837
H    1.201204   0.908902   0.288996
H    4.764585   3.583488   0.146000
H    9.469342  -1.694858  -0.090027
H   11.658816   0.186951   1.580019
H   11.586384   0.253545  -1.775889
H    8.319028   6.403224  -0.161628
H   10.950906   5.111029  -1.761622
H   10.267883   4.710917   3.532144

