%chk=mol_1429.chk
# wB97XD/Def2SVP opt pop=full gfinput

C 5 H 14 N 2

1 2
C    1.674732   0.672176   2.734717
C    4.355101   0.200179   1.792651
C    5.575731   2.514488   0.508374
N    5.758279   4.665110   2.260755
C    8.252736   1.893411  -0.525004
N    8.205399  -0.077592  -2.479717
C   10.748384  -0.613122  -3.390395
H    0.847826  -1.093811   3.426206
H    0.469238   1.391519   1.215925
H    1.643665   2.024879   4.297691
H    4.277603  -1.374228   0.447487
H    5.526353  -0.435922   3.381174
H    4.384297   3.106748  -1.082114
H    6.666557   4.103389   3.865340
H    3.992708   5.199600   2.812234
H    9.462425   1.284957   1.046719
H    9.082062   3.621377  -1.319860
H    7.124135   0.532487  -3.954365
H   11.959604  -1.306122  -1.863081
H   11.619397   1.059929  -4.240583
H   10.664330  -2.090226  -4.835450

