%chk=mol_2033.chk
# wB97XD/Def2SVP opt pop=full gfinput

C 6 H 9 N 1

1 2
N    1.917165  -0.036736   0.045637
C    4.667624   0.000000   0.000000
C    5.578509   2.572238   0.000000
C    6.329260   4.692322   0.000000
C    7.600856   7.083355   0.082940
C    7.335350   8.860038  -2.120386
C    6.110316   9.483401   0.362809
H    1.309694  -1.849626  -0.153106
H    1.259559   0.930803  -1.483114
H    5.336776  -1.001215  -1.683160
H    5.383395  -1.022550   1.649712
H    9.438917   7.041554   0.999835
H    6.119614   8.328930  -3.680960
H    8.995587   9.925541  -2.678555
H    6.935597  10.978950   1.492241
H    4.067806   9.361136   0.487795

