%chk=mol_6218.chk
# wB97XD/Def2SVP opt pop=full gfinput

C 4 H 7 N 1 O 2

1 2
O    2.842091  -0.737069   2.049975
C    3.445972   0.329209  -0.335502
C    5.183859   2.624168  -0.036604
C    4.022301   5.185881   0.285746
C    1.635860   5.570270   1.031658
N    7.601461   2.163680  -0.063608
O    9.043587   4.357671   0.254886
H    4.454122  -1.173388   2.829147
H    1.698391   0.849621  -1.303987
H    4.389418  -1.109836  -1.483454
H    5.250075   6.788066  -0.078839
H    0.353360   4.037740   1.498761
H    0.919408   7.479536   1.254230
H   10.768831   3.707303   0.235970

