%chk=mol_4524.chk
# wB97XD/Def2SVP opt pop=full gfinput

C 4 H 10 N 2 O 1

1 2
C    4.229321  -1.892674   2.068740
C    4.149820  -0.173760  -0.226125
C    5.255347   2.402012   0.387526
N    3.893800   4.092145   1.532473
N    7.701900   2.979342  -0.259081
O    9.369810   0.946054   0.007767
C   10.768964   0.800034  -2.289819
H    3.442590  -3.746968   1.603640
H    3.128460  -1.096608   3.630750
H    6.165307  -2.160259   2.740216
H    2.192838   0.075362  -0.853514
H    5.194668  -1.027179  -1.796147
H    2.123958   3.388147   1.889575
H    8.286883   4.561194   0.667848
H   12.070059  -0.798617  -2.150508
H   11.871222   2.526980  -2.580175
H    9.502317   0.476570  -3.894026

