%chk=mol_2812.chk
# wB97XD/Def2SVP opt pop=full gfinput

C 6 H 10 O 1

1 2
C    1.889726   0.000000   0.000000
C    4.618491   0.000000   0.000000
C    6.867567   0.000000   0.000000
C    9.596332   0.000000   0.000000
C   10.675818   2.678328   0.005386
C   10.042364   4.154166  -2.386006
O   11.221081   6.572543  -2.290121
H    1.145458   1.929297   0.021241
H    1.144947  -0.982922   1.660030
H    1.145098  -0.945921  -1.681440
H   10.314787  -1.035816  -1.643684
H   10.292034  -0.998569   1.676811
H   12.737775   2.581026   0.205716
H   10.002339   3.729374   1.662071
H    8.006807   4.443427  -2.608162
H   10.745493   3.173757  -4.066237
H   10.464131   7.490723  -0.889721

