%chk=mol_2671.chk
# wB97XD/Def2SVP opt pop=full gfinput

C 5 H 8 O 2

1 2
C    4.705267  -1.110894  -2.641667
C    4.702394   0.052799  -0.015477
C    6.598697   2.200888   0.139859
O    5.758071   4.415667  -1.246293
C    5.732031   6.053700   0.946318
C    6.518176   3.790054   2.544554
O    6.898483   3.416700   4.770689
H    3.363864  -2.681937  -2.733923
H    6.581897  -1.831825  -3.130312
H    4.168622   0.281229  -4.074609
H    5.188319  -1.407544   1.370770
H    2.793866   0.717812   0.441553
H    8.528126   1.672105  -0.395444
H    7.136834   7.556845   0.815549
H    3.848862   6.788841   1.349529

