%chk=mol_1019.chk
# wB97XD/Def2SVP opt pop=full gfinput

C 4 H 11 N 1 O 1

1 2
C    2.563451   3.562285  -2.060198
C    4.891877   2.502980  -0.770933
O    6.902489   4.273634  -1.050669
C    9.151623   3.421878   0.193716
C   11.241735   5.392485  -0.180488
N   10.586208   7.796802   1.032376
H    0.976799   2.246242  -1.913782
H    2.941718   3.934523  -4.060171
H    2.015828   5.365348  -1.204927
H    5.423514   0.703791  -1.645725
H    4.501007   2.192479   1.238489
H    9.749532   1.620705  -0.635893
H    8.773243   3.140611   2.211925
H   11.509434   5.732975  -2.204555
H   13.021894   4.697935   0.609021
H    8.796732   8.256610   0.458410
H   11.737259   9.181159   0.352358

