%chk=mol_2181.chk
# wB97XD/Def2SVP opt pop=full gfinput

C 6 H 10 O 1

1 2
C   -3.209738   1.240133   0.643697
C   -3.141140  -1.399399  -0.708723
C   -0.366002  -1.488726   0.230433
C    2.197033  -1.959438  -0.908845
O    3.773859   0.020768   0.124438
C    2.096046   1.953334   1.083890
C   -0.397296   1.410907  -0.169660
H   -4.479690   2.631141  -0.202805
H   -3.524831   1.172254   2.689383
H   -3.365999  -1.338965  -2.766124
H   -4.407181  -2.826463   0.080918
H   -0.321405  -2.101451   2.225493
H    2.984690  -3.793814  -0.376792
H    2.205499  -1.797167  -2.972804
H    2.015657   1.790704   3.145525
H    2.853997   3.810330   0.586212
H   -0.282306   2.025295  -2.161072

