%chk=mol_1581.chk
# wB97XD/Def2SVP opt pop=full gfinput

C 4 H 5 N 3

1 2
C    2.222224  -0.607830  -0.430234
C    4.597420  -0.816494   0.399715
N    6.495367   0.912190   0.063570
C    8.965069   0.845898   0.847334
N   10.158241  -0.858616   2.107763
C   10.567783   2.992684   0.201407
N   11.720346   4.769556  -0.386033
H    0.854289  -2.093344  -0.060849
H    1.571704   1.023891  -1.487668
H    5.138109  -2.498237   1.450327
H    5.968606   2.477752  -0.921449
H    8.964332  -2.318316   2.515396

