%chk=mol_3318.chk
# wB97XD/Def2SVP opt pop=full gfinput

C 6 H 8 O 1

1 2
C    5.807695  -2.145255   1.009397
O    4.429008   0.072452   0.374827
C    5.828085   2.240969   0.229186
C    4.842536   4.561346  -0.050380
C    6.864808   6.385781  -0.160343
C    9.091888   5.192363   0.042651
C    8.666965   2.393697   0.315849
H    4.471470  -3.719397   1.111083
H    6.709114  -1.951766   2.861953
H    7.208701  -2.591136  -0.445749
H    2.859760   5.013519  -0.182718
H    6.581746   8.394145  -0.377756
H   10.925262   6.085825   0.017310
H    9.537958   1.368653  -1.253984
H    9.423969   1.720615   2.117646

