%chk=mol_4796.chk
# wB97XD/Def2SVP opt pop=full gfinput

C 5 H 7 N 1 O 1

1 2
C    0.385561   0.881217  -0.750013
C    2.897347  -0.295515  -0.209930
N    4.774185   1.059135   0.567919
O    6.873577  -0.531693   0.918123
C    8.963236   0.952705   1.775077
C   11.163349  -0.692660   2.164454
C   12.965544  -2.035065   2.485311
H   -0.101459   0.538780  -2.727744
H    0.425377   2.913259  -0.385863
H   -1.041712  -0.011565   0.446505
H    3.063699  -2.354372  -0.507826
H    8.450270   1.889159   3.549170
H    9.395227   2.399064   0.357744
H   14.559603  -3.232395   2.768014

