%chk=mol_2366.chk
# wB97XD/Def2SVP opt pop=full gfinput

C 5 H 10 O 2

1 2
C    1.877330  -0.208985   0.576933
C    4.521623   0.377643  -0.352925
C    6.077567   2.242878   1.219062
C    7.737862  -0.046695   1.857998
C   10.482141   0.031313   1.002330
O   11.829893   1.895698   2.407076
O    6.240783  -1.671047   0.227372
H    1.060836  -1.779952  -0.493445
H    0.642053   1.432715   0.334916
H    1.869223  -0.727507   2.580459
H    4.555922   0.793345  -2.382340
H    5.108950   3.082767   2.839824
H    6.990021   3.731699   0.113818
H    7.556864  -0.660932   3.830380
H   10.655183   0.468501  -1.013196
H   11.391950  -1.794333   1.342046
H   11.373222   3.539665   1.725188

