%chk=mol_4033.chk
# wB97XD/Def2SVP opt pop=full gfinput

C 4 H 7 N 1 O 2

1 2
C    1.857185  -0.011055   0.348541
C    4.661709   0.089365  -0.204431
C    6.238836   1.974272   1.386889
N    8.070623  -0.103103   1.732955
O    8.925025  -0.337089   4.254038
C    6.311194  -1.916825   1.118680
O    6.128741  -4.123383   1.678096
H    0.985889  -1.625505  -0.608681
H    0.921223   1.705705  -0.329304
H    1.478182  -0.190333   2.374951
H    5.047855   0.188160  -2.241140
H    5.382337   2.622940   3.154973
H    7.021391   3.572527   0.341303
H   10.458935  -1.331255   4.007656

