%chk=mol_3719.chk
# wB97XD/Def2SVP opt pop=full gfinput

C 6 H 6 O 1

1 2
O    1.872908   0.027193   0.114272
C    4.573137   0.000000   0.000000
C    5.371924  -1.465520  -2.371550
C    8.086724  -2.090132  -2.383039
C   10.297873  -2.602512  -2.402806
C    5.484023   2.572238   0.000000
C    6.234774   4.692322   0.000000
H    1.421452   1.136236   1.508871
H    5.234881  -0.995621   1.692306
H    4.884073  -0.393838  -4.078860
H    4.276129  -3.223249  -2.484631
H   12.260260  -3.054308  -2.427032
H    6.911447   6.589362  -0.012113

