%chk=mol_4668.chk
# wB97XD/Def2SVP opt pop=full gfinput

C 5 H 11 N 1 O 1

1 2
C    2.032797   0.044824   0.273198
C    4.887361  -0.038626  -0.145773
N    5.443526  -1.332937  -2.527849
C    5.957191   2.631444  -0.217148
C    6.046878   4.072983   2.301290
O    8.678851   4.714791   1.916825
C    8.848737   2.876182  -0.108130
H    1.578413   0.951156   2.077414
H    1.228738  -1.862590   0.308498
H    1.075557   1.120060  -1.217097
H    5.757466  -1.116979   1.394542
H    4.477857  -0.498982  -3.973036
H    4.782859  -3.142463  -2.445343
H    5.137863   3.785632  -1.737622
H    5.804464   2.947255   4.019410
H    4.848886   5.754197   2.393055
H    9.727082   3.674232  -1.799624
H    9.897724   1.201242   0.502100

