%chk=mol_1599.chk
# wB97XD/Def2SVP opt pop=full gfinput

C 5 H 8 N 2

1 2
C    2.332942  -0.949701  -0.566804
C    5.179532  -0.774958  -0.464173
N    6.535939  -2.681219  -1.170629
N    6.236361   1.401931   0.425831
C    8.920698   1.882810   0.273330
C    9.473783   4.369444   1.384810
C    9.919569   6.403696   2.291104
H    1.470018   0.918142  -0.381214
H    1.677850  -2.153626   0.980144
H    1.746145  -1.783599  -2.364614
H    5.400289  -4.141902  -1.746069
H    5.131816   2.954927   0.587232
H    9.534595   1.855314  -1.704287
H    9.970176   0.417346   1.291892
H   10.318811   8.204170   3.098811

