%chk=mol_6562.chk
# wB97XD/Def2SVP opt pop=full gfinput

C 4 H 10 N 2 S 1

1 2
C    4.732498  -0.578218  -3.220207
C    5.258087   0.131298  -0.482712
N    6.303163   2.696072  -0.227296
C    4.413115   4.710823  -0.131771
C    8.881316   3.148454  -0.168318
N    9.590247   5.542283   0.445805
S   11.206170   1.106283  -0.788621
H    3.981426  -2.502300  -3.326220
H    6.448369  -0.492274  -4.370351
H    3.344683   0.696005  -4.073248
H    6.550093  -1.248636   0.355420
H    3.508125   0.035697   0.622381
H    3.544314   4.696744   1.743764
H    2.960010   4.363529  -1.559742
H    5.218894   6.574357  -0.500229
H    8.514256   6.542988   1.660635
H   11.477818   5.814177   0.630280

