%chk=mol_4357.chk
# wB97XD/Def2SVP opt pop=full gfinput

C 5 H 9 N 1 O 1

1 2
C    1.293933  -0.036680   0.412678
C    4.117260  -0.107620   0.399205
C    5.577942   1.881279  -0.190314
C    8.402950   1.854653  -0.176841
N    9.239381   2.248434  -2.735454
C   11.612235   3.146715  -3.242430
O   13.163700   3.829606  -1.673617
H    0.547794  -1.462043  -0.886338
H    0.555050   1.808185  -0.162498
H    0.587610  -0.451796   2.311229
H    4.983057  -1.898891   0.917972
H    4.702300   3.677464  -0.675955
H    9.169896   0.043445   0.468539
H    9.136939   3.346894   1.054070
H    8.234255   1.466050  -4.160138
H   11.999062   3.197360  -5.289381

