%chk=mol_4045.chk
# wB97XD/Def2SVP opt pop=full gfinput

C 5 H 7 N 1 O 1

1 2
C    1.747827   0.090140  -0.014324
C    4.544451  -0.013493  -0.002079
C    6.188305   2.015771   0.004630
O    8.630719   1.227415   0.016252
C    8.575256  -1.339627   0.017518
C    6.120785  -2.178136   0.005877
N    5.370394  -4.598649   0.003269
H    1.065258   2.043437   0.002457
H    0.979861  -0.868386   1.650260
H    0.996642  -0.834238  -1.705799
H    5.925369   4.041803   0.002816
H   10.396291  -2.260698   0.027136
H    3.524642  -5.113448  -0.041083
H    6.605443  -6.065907  -0.024944

