%chk=mol_4339.chk
# wB97XD/Def2SVP opt pop=full gfinput

C 5 H 9 N 1 O 1

1 2
C    5.927183  -0.752262   2.607576
C    5.506681   0.322765  -0.026626
C    5.511348   3.168693  -0.020126
C    3.377148   4.544621  -0.094562
C    8.037270   4.415987  -0.121698
N    8.246954   6.616158   1.188883
O    9.854393   3.467251  -1.190036
H    5.928165  -2.819339   2.540397
H    4.424170  -0.159531   3.900357
H    7.737503  -0.137289   3.396216
H    3.701142  -0.388584  -0.759330
H    6.959767  -0.400962  -1.315174
H    1.538029   3.633906  -0.085831
H    3.389677   6.591327  -0.218074
H    6.868833   7.276466   2.328918
H    9.976658   7.422410   1.270425

