%chk=mol_4883.chk
# wB97XD/Def2SVP opt pop=full gfinput

C 5 H 10 N 2

1 2
C    2.414220   0.380043   0.408445
C    2.217253  -0.029064   3.206412
C    1.428406  -2.559729   4.252677
N    4.035378  -1.677567   4.484622
C    4.604110   2.051147  -0.257721
C    4.413153   3.908540  -2.407719
N    4.449719   4.773146   0.211744
H    2.640779  -1.424098  -0.585664
H    0.630809   1.198238  -0.260574
H    1.649202   1.667438   4.207626
H    1.140941  -4.122948   2.969894
H    0.322236  -2.608332   5.972479
H    4.391742  -1.012081   6.264707
H    6.411765   1.154396   0.103028
H    2.627192   4.125272  -3.383989
H    6.083406   4.290850  -3.525586
H    6.190289   5.460345   0.695684

