%chk=mol_2229.chk
# wB97XD/Def2SVP opt pop=full gfinput

C 5 H 8 O 2

1 2
C   -2.346171  -0.002192   1.863969
C   -1.137936  -1.894507   0.007086
C    1.678530  -2.292729   0.514648
O    3.112171  -0.001115   0.221155
C    1.678870   2.289800   0.521905
C   -1.136028   1.894961   0.014778
O   -1.509835   0.002192  -2.011821
H   -1.634953  -0.006047   3.801864
H   -4.413266  -0.002532   1.872038
H   -2.234431  -3.616841  -0.313184
H    1.986953  -3.013735   2.430282
H    2.461236  -3.675895  -0.809823
H    2.462785   3.675838  -0.798579
H    1.988483   3.004419   2.438805
H   -2.233014   3.617522  -0.301789

