%chk=mol_1241.chk
# wB97XD/Def2SVP opt pop=full gfinput

C 5 H 12 N 2

1 2
C    1.865141  -0.301544   0.081939
C    4.733953  -0.154693   0.035206
C    5.653437   2.581838   0.019596
C    8.534344   2.721149  -0.043898
C    9.392317   5.447646  -0.054235
N    9.749834   6.654803  -2.289932
N    9.729822   6.690859   2.019985
H    1.249317  -2.275892   0.095828
H    1.049006   0.613613  -1.584082
H    1.102674   0.620907   1.769162
H    5.437347  -1.143398  -1.643892
H    5.492281  -1.141905   1.691135
H    4.942673   3.569466   1.698354
H    4.870296   3.574719  -1.623520
H    9.266895   1.781218  -1.738113
H    9.344186   1.765647   1.605568
H    8.698466   6.085391  -3.782173
H    9.854336   8.558494  -2.082006
H    9.383643   5.556683   3.552250

