%chk=mol_6452.chk
# wB97XD/Def2SVP opt pop=full gfinput

C 6 H 13 N 1

1 2
C    1.872227  -0.035640   0.065082
C    4.737203  -0.000586   0.034960
C    6.032422   1.998801   1.747486
C    8.002367  -0.013984   2.513884
N   10.165895   0.160532   0.802737
C    6.097523  -2.071650   1.632251
C    6.964151  -4.421014   0.228676
H    1.155832  -1.674108  -0.973757
H    1.115845   1.667438  -0.832972
H    1.128696  -0.125629   1.993548
H    5.429920   0.092086  -1.921247
H    4.859015   2.615929   3.343341
H    6.727859   3.689539   0.781232
H    8.509229  -0.051136   4.516483
H    9.731258   0.285575  -1.067261
H   11.401757  -1.305536   0.967445
H    4.928500  -2.682069   3.245151
H    8.014763  -3.960677  -1.491485
H    5.334942  -5.569949  -0.323975
H    8.176713  -5.582024   1.436872

