%chk=mol_0430.chk
# wB97XD/Def2SVP opt pop=full gfinput

C 5 H 9 N 1

1 2
C    1.797829  -0.031294   0.139008
C    4.676770  -0.077743  -0.114536
N    5.363213  -1.516222  -2.388198
C    5.728818   2.641705  -0.178409
C    8.504731   2.719713   0.023659
C   10.766866   2.794338   0.189124
H    1.232801   0.954217   1.869430
H    1.027879  -1.950953   0.236858
H    0.909884   0.934696  -1.463120
H    5.461157  -1.072760   1.526086
H    4.669060  -0.644680  -3.958390
H    4.553711  -3.261951  -2.327557
H    4.928765   3.723724   1.399248
H    5.128339   3.601667  -1.915370
H   12.775059   2.844491   0.325486

