%chk=mol_4507.chk
# wB97XD/Def2SVP opt pop=full gfinput

C 4 H 9 N 1 O 2

1 2
C    1.684899  -0.040402   0.160438
C    4.540029   0.186856  -0.171001
C    5.560274  -1.288510  -2.448121
N    4.462532  -0.419330  -4.853403
C    5.276720   2.958895  -0.239561
O    5.201150   4.019825  -2.562714
O    5.766556   4.185007   1.659690
H    1.086460   0.860562   1.926085
H    1.104299  -2.024747   0.229488
H    0.653222   0.890080  -1.373529
H    5.457567  -0.614123   1.509419
H    5.182612  -3.312161  -2.223546
H    7.615275  -1.049422  -2.557480
H    2.647601  -1.090391  -4.985268
H    5.390293  -1.323035  -6.297437
H    4.785599   2.748229  -3.877113

