%chk=mol_4703.chk
# wB97XD/Def2SVP opt pop=full gfinput

C 4 H 10 N 2 O 1

1 2
C    4.000191   0.072339   1.476764
C    6.596089  -0.310520   0.310406
N    7.874187   2.132783   0.232928
C   10.151023   2.239023  -0.677013
C   11.577029  -0.032692  -1.669384
N   11.393234   4.535966  -0.759821
O    9.744580   6.606218  -0.652560
H    2.972123  -1.720237   1.560233
H    2.880888   1.413799   0.366758
H    4.157756   0.822088   3.399712
H    6.363993  -1.082095  -1.596214
H    7.652049  -1.664168   1.466409
H   10.544747  -0.871523  -3.250102
H   11.798297  -1.432582  -0.166353
H   13.457344   0.512569  -2.332338
H   12.817446   4.745688  -2.032779
H    8.259577   5.888916   0.211064

