%chk=mol_1030.chk
# wB97XD/Def2SVP opt pop=full gfinput

C 4 H 9 N 1 O 1

1 2
C    2.242330  -0.209930  -0.021694
N    5.001633  -0.182075  -0.081202
C    6.056799  -1.103373  -2.456871
C    6.033915   1.688848  -1.833582
C    8.426893   3.030535  -1.176695
O    9.743598   3.642069  -3.437752
H    1.565808   1.197916   1.334449
H    1.583987  -2.063902   0.617090
H    1.345145   0.186176  -1.847283
H    4.777417  -1.792727  -3.899828
H    7.814584  -2.140039  -2.294392
H    4.734879   2.901372  -2.854488
H    9.673300   1.899515   0.026815
H    8.000949   4.793649  -0.184721
H   10.288104   2.050901  -4.175652

