%chk=mol_4881.chk
# wB97XD/Def2SVP opt pop=full gfinput

C 4 H 9 N 1 O 2

1 2
C    3.077098  -1.385831   0.561003
C    5.771337  -0.789301  -0.211460
O    6.387539   1.682726   0.721384
C    8.742648   2.554759   0.183247
C    9.147182   5.155230   1.235182
N   10.366225   1.249978  -1.108513
O   12.631516   2.583652  -1.419506
H    2.515868  -3.258682  -0.107903
H    1.769936   0.019767  -0.212065
H    2.878676  -1.323470   2.619746
H    5.926011  -0.816948  -2.275967
H    7.059053  -2.185997   0.611629
H    7.552177   5.723792   2.420947
H    9.330711   6.503682  -0.319156
H   10.857969   5.186316   2.393111
H   13.656295   1.401307  -2.394472

