%chk=mol_0199.chk
# wB97XD/Def2SVP opt pop=full gfinput

C 4 H 8 O 1

1 2
C    1.920850  -0.054878  -0.143978
C    4.701676   0.266319   0.092615
O    6.131424  -0.916706  -1.884511
C    6.180992   1.790837  -1.803441
C    8.684822   2.887029  -1.154547
H    0.944504   1.252983   1.125219
H    1.377780  -1.981888   0.373901
H    1.257556   0.306268  -2.071744
H    5.382318   0.075211   2.009592
H    5.203380   2.813897  -3.277711
H    9.651871   1.801230   0.317455
H    8.455107   4.827362  -0.476778
H    9.900048   2.928225  -2.827370

