%chk=mol_3016.chk
# wB97XD/Def2SVP opt pop=full gfinput

C 5 H 10 O 2

1 2
C    1.641322  -0.037001   0.076817
C    4.514008  -0.059810   0.101856
C    5.594043   2.608786  -0.061605
C    8.478786   2.585278  -0.077989
O    9.426408   5.118758  -0.294759
C    9.751932   6.372138   1.913253
O    9.309358   5.581363   4.033318
H    0.908448  -1.967299   0.202579
H    0.921960   0.809748  -1.668534
H    0.893255   1.039293   1.677510
H    5.197427  -1.195743  -1.489218
H    5.170896  -0.977725   1.838439
H    4.912173   3.750332   1.529015
H    4.910510   3.559488  -1.773470
H    9.167780   1.544832  -1.729629
H    9.249359   1.640018   1.596441
H   10.492043   8.273731   1.507038

