%chk=mol_3578.chk
# wB97XD/Def2SVP opt pop=full gfinput

C 5 H 8 O 2

1 2
O    2.297888   0.239542   1.238413
C    4.361620   0.125969   0.178447
C    5.751722  -2.345169  -0.079614
C    7.577878  -2.439485  -2.280257
C    9.238134  -0.110209  -2.231464
C    7.566085   2.205084  -2.411479
O    5.571007   2.247470  -0.569488
H    4.358786  -3.861107  -0.296120
H    6.766183  -2.659922   1.699790
H    8.736204  -4.151445  -2.168234
H    6.529665  -2.520365  -4.066672
H   10.314976  -0.065479  -0.461490
H   10.594315  -0.142599  -3.793701
H    8.702604   3.910939  -2.129759
H    6.691463   2.350309  -4.282970

