%chk=mol_3670.chk
# wB97XD/Def2SVP opt pop=full gfinput

C 5 H 8 O 2

1 2
O    4.443691  -0.803965  -2.778427
C    4.459243   0.181451  -0.272574
C    6.275516   2.415939  -0.114404
C    6.621034   3.347517   2.607009
O    6.491984   6.075829   2.619784
C    5.536066   6.661474   0.272045
C    5.328480   4.759181  -1.348471
H    3.207319  -2.163642  -2.817638
H    5.067225  -1.334789   0.998097
H    2.526262   0.729756   0.228090
H    8.099272   1.909039  -0.959830
H    8.456903   2.771491   3.370837
H    5.148067   2.640703   3.882726
H    5.116131   8.631928  -0.021675
H    4.684196   4.887248  -3.279941

