%chk=mol_1002.chk
# wB97XD/Def2SVP opt pop=full gfinput

C 4 H 7 N 1 O 1

1 2
C    0.753566   0.060774  -0.277185
C    3.082710  -0.435998   0.582433
C    5.232009   1.409244   0.586117
O    7.354814   0.229753  -0.595245
N    9.435289   1.870394  -0.442725
C   11.363377   0.772652  -1.450573
H   -0.713069  -1.372773  -0.218433
H    0.257494   1.893884  -1.052370
H    3.491874  -2.298682   1.347167
H    5.713606   1.889575   2.541625
H    4.752019   3.141689  -0.443292
H   13.197375   1.752910  -1.520870
H   11.281873  -1.144324  -2.265876

