%chk=mol_6469.chk
# wB97XD/Def2SVP opt pop=full gfinput

C 3 H 6 O 3 S 1

1 2
C    1.916598  -0.080710   0.176878
C    4.761505   0.189294  -0.009600
C    5.957966   2.212718   1.664527
S    8.251848  -0.059035   2.374139
O    8.500536  -0.480066   5.060535
O   10.349179  -0.000567   0.627484
O    6.027546  -1.886306   1.248221
H    1.270161  -1.728381  -0.893387
H    0.975023   1.589505  -0.598703
H    1.302513  -0.312013   2.139019
H    5.371830   0.306551  -1.991053
H    4.853837   2.793601   3.311386
H    6.683678   3.871539   0.673328

