%chk=mol_2188.chk
# wB97XD/Def2SVP opt pop=full gfinput

C 6 H 10 O 1

1 2
C    1.453615   1.937820  -0.875472
O   -0.524494   0.297405  -0.002853
C    1.941429  -0.787638  -0.260669
C    3.115818  -1.720803   2.149696
C    2.531156  -0.450000   4.731553
C    2.827767  -3.083183   5.943964
C    2.108557  -4.202562   3.354075
H    1.410454   2.499295  -2.842507
H    2.127038   3.377224   0.413302
H    2.252535  -2.108367  -1.791763
H    5.172143  -1.833431   1.840007
H    0.619849   0.324749   4.911436
H    3.890871   0.973719   5.356297
H    4.766758  -3.517479   6.533086
H    1.538086  -3.509524   7.499718
H    3.109469  -5.928732   2.820775
H    0.073624  -4.501762   3.110565

