%chk=mol_0572.chk
# wB97XD/Def2SVP opt pop=full gfinput

C 4 H 8 N 2

1 2
N    2.357981   2.270506  -3.374503
C    4.723503   2.608559  -2.928112
N    6.189666   0.885223  -1.726227
C    8.541052   1.681667  -0.548701
C   10.736762  -0.110984  -0.382934
C   10.877887   2.148808  -2.091492
H    1.656666   3.816869  -4.311127
H    5.718954   4.346805  -3.512018
H    5.179928  -0.565935  -0.978255
H    8.230721   2.894550   1.081074
H   10.557862  -1.955111  -1.255704
H   11.861489  -0.094108   1.328024
H   12.095891   3.699007  -1.538691
H   10.789958   1.823718  -4.111761

