%chk=mol_0118.chk
# wB97XD/Def2SVP opt pop=full gfinput

C 3 H 5 N 1 O 1

1 2
O    1.699109   0.239750  -0.035773
N    4.297010  -0.212972  -0.253488
C    5.505320   1.847585   0.262029
C    8.290531   1.959457   0.190806
C    9.492623   4.114727   0.732288
H    0.978047  -1.403840  -0.455821
H    4.508849   3.608734   0.776659
H    9.283998   0.240865  -0.312145
H    8.494092   5.834246   1.235673
H   11.542089   4.197252   0.679942

