%chk=mol_4901.chk
# wB97XD/Def2SVP opt pop=full gfinput

C 4 H 6 N 2 O 1

1 2
C    3.541781   5.807903   1.785659
C    5.673770   5.043150   0.679186
O    6.370456   2.499371   0.631131
C    8.888421   1.975066   0.402285
N   10.675573   3.632942   0.298822
N   13.025126   2.470080   0.081655
C   14.806571   4.137140   0.082808
H    3.013376   7.787486   1.786453
H    2.295526   4.472661   2.714554
H    6.961600   6.302312  -0.289147
H    9.170784  -0.087551   0.334803
H   16.790443   3.533353  -0.074210
H   14.448827   6.186151   0.237501

