%chk=mol_3172.chk
# wB97XD/Def2SVP opt pop=full gfinput

C 6 H 6 O 1

1 2
C    1.647520   4.245100   0.171625
C    4.092448   4.130866  -0.430366
O    5.580550   2.123334   0.262766
C    8.196763   2.207710   0.000000
C    9.465865   0.024604  -0.139670
C    9.525240   4.508698   0.000000
C   10.649778   6.456457   0.000000
H    0.491367   5.830126  -0.418896
H    0.762391   2.756732   1.269442
H    5.017355   5.574031  -1.542054
H    8.464575  -1.763398  -0.096811
H   11.508149  -0.032390  -0.303585
H   11.656946   8.198936   0.006501

