%chk=mol_2937.chk
# wB97XD/Def2SVP opt pop=full gfinput

C 6 H 6 O 1

1 2
C    1.889726   0.000000   0.000000
C    4.618491   0.000000   0.000000
C    6.867567   0.000000   0.000000
C    9.606102  -0.018406  -0.001568
O   10.707397  -2.051430  -0.172438
C   11.112648   2.347229   0.197231
C   10.122224   4.667151   0.392213
H    1.145420   1.929278   0.023036
H    1.145042  -0.984377   1.659198
H    1.145023  -0.944504  -1.682215
H   13.143744   2.065225   0.173496
H    8.100727   5.013387   0.421333
H   11.350338   6.305562   0.529879

