%chk=mol_2392.chk
# wB97XD/Def2SVP opt pop=full gfinput

C 5 H 8 O 2

1 2
C    1.722278   0.049794   0.228317
C    4.579090   0.112817   0.026456
C    5.973670   2.053962   1.745162
C    7.946790  -0.044805   2.200416
O   10.140195  -0.097340   2.869795
C    6.040661  -2.108991   1.316024
O    7.065251  -3.980463  -0.377359
H    0.955351  -1.548536  -0.838264
H    0.904121   1.782484  -0.551139
H    1.098554  -0.129352   2.192063
H    5.128773   0.327905  -1.967318
H    4.977255   2.605573   3.470293
H    6.698229   3.725463   0.776659
H    5.065467  -2.994082   2.914544
H    8.830048  -4.152238   0.128445

