%chk=mol_6912.chk
# wB97XD/Def2SVP opt pop=full gfinput

C 6 H 7 N 1

1 2
C    5.675395  -2.102944   0.875907
C    4.529825   0.023489   0.124438
C    5.691061   2.435082   0.086644
C    4.678508   4.834997  -0.131978
C    6.693486   6.594483  -0.099834
C    8.896188   5.232425   0.112628
N    8.273069   2.718050   0.211404
H    4.633949  -3.872521   0.869822
H    7.606960  -2.188227   1.546854
H    2.557933  -0.077838  -0.453553
H    2.687134   5.274925  -0.289298
H    6.549753   8.630380  -0.227391
H   10.849938   5.827178   0.192525
H    9.537240   1.292629   0.327584

