%chk=mol_7132.chk
# wB97XD/Def2SVP opt pop=full gfinput

C 6 H 15 N 1

1 2
C    1.822433  -0.190371  -0.001644
C    4.715169   0.024661  -0.076893
C    5.694746  -1.543358  -2.318864
C    5.702192   2.813311  -0.065271
C    4.927045   4.307895  -2.432096
C    4.784163   4.244665   2.296886
N    8.485060   2.777916   0.019464
H    1.034568   0.705983   1.685201
H    1.247049  -2.179119   0.052742
H    0.944580   0.662973  -1.667570
H    5.419942  -0.899869   1.646329
H    4.954692  -0.848468  -4.120661
H    5.103395  -3.518954  -2.128285
H    7.759915  -1.535535  -2.416487
H    5.656177   3.448694  -4.168018
H    5.653777   6.248549  -2.364085
H    2.869700   4.442765  -2.604931
H    5.230516   3.204843   4.031863
H    2.739933   4.562460   2.249322
H    5.671654   6.112508   2.442452
H    9.078150   1.902009   1.629416
H    9.167193   4.577408   0.104899

