%chk=mol_0385.chk
# wB97XD/Def2SVP opt pop=full gfinput

C 4 H 10 N 2

1 2
C    3.438243  -1.323356  -0.703224
C    6.262836  -0.954198  -0.339489
C    6.924864   1.824247   0.054330
C    9.732090   2.116569   0.504387
N   10.640594   2.066472   2.903829
N   11.308934   2.344054  -1.345372
H    3.009087  -3.325729  -0.990481
H    2.760210  -0.277109  -2.353276
H    2.387858  -0.673801   0.955842
H    7.271383  -1.692439  -1.993056
H    6.895648  -2.072255   1.287074
H    5.902276   2.588188   1.685220
H    6.386065   2.939998  -1.604888
H    9.667726   1.049951   4.198556
H   12.539184   1.801211   2.959689
H   10.368946   2.340955  -3.039870

