%chk=mol_4940.chk
# wB97XD/Def2SVP opt pop=full gfinput

C 4 H 7 N 1 O 2

1 2
C    6.007515  -2.943116   0.505483
C    4.836206  -0.471279  -0.267245
O    2.671695  -0.344384  -1.109194
N    6.227233   1.708690  -0.030141
C    8.677282   2.022139   0.824015
C    9.557404   4.732044   0.769818
O   10.051473   0.329568   1.605606
H    7.676030  -3.333855  -0.647911
H    4.642925  -4.464969   0.202673
H    6.495537  -2.906172   2.512145
H    5.254497   3.245453  -0.608114
H    8.260976   5.945910  -0.285746
H   11.409883   4.819671  -0.141163
H    9.699114   5.431829   2.708337

