%chk=mol_2407.chk
# wB97XD/Def2SVP opt pop=full gfinput

C 6 H 8 O 1

1 2
C    1.876781   0.099967   0.003383
C    4.678471  -0.050701   0.006463
C    6.147978  -2.123863   0.004724
C    8.875212  -1.368823   0.025927
O   10.071806  -2.227005  -2.197827
C    8.705099   1.455505  -0.003250
C    6.272530   2.171673   0.001474
H    1.021624  -1.784657  -0.003231
H    1.202981   1.107757  -1.671916
H    1.199504   1.097156   1.684615
H    5.502127  -4.058376   0.007502
H    9.868074  -2.074031   1.695028
H    9.095385  -1.550634  -3.599928
H   10.319114   2.699549  -0.008371
H    5.582402   4.091559  -0.005783

