%chk=mol_4707.chk
# wB97XD/Def2SVP opt pop=full gfinput

C 4 H 10 N 2 O 1

1 2
C    2.235206  -1.261865   0.444237
C    5.024782  -1.037195   1.094397
N    6.160016   1.029674  -0.347691
C    8.857524   1.267458   0.249557
C    9.928111   3.411995  -1.296069
N   10.750595   5.453164  -0.226767
O   11.635876   7.101553  -2.096028
H    1.375116  -2.806149   1.520738
H    1.965070  -1.663205  -1.569550
H    1.211409   0.479046   0.901683
H    5.963768  -2.826066   0.643508
H    5.222372  -0.698292   3.127308
H    5.277967   2.685301   0.114650
H    9.877126  -0.451815  -0.282665
H    9.150356   1.651923   2.261870
H    9.966076   3.159433  -3.369363
H   12.210862   8.549650  -1.110724

