%chk=mol_4457.chk
# wB97XD/Def2SVP opt pop=full gfinput

C 5 H 11 N 1 O 1

1 2
C    2.297397   0.271743   0.393970
C    5.079640  -0.144281  -0.291018
C    5.380220  -1.754856  -2.699001
N    4.310314  -4.287978  -2.421949
C    6.359193   2.374630  -0.645285
C    7.806251   3.603953   1.477369
O    9.065961   2.284169  -0.526591
H    2.129211   1.482604   2.064299
H    1.345976  -1.515617   0.815058
H    1.277738   1.198464  -1.151259
H    5.979944  -1.147177   1.288680
H    7.387960  -1.934210  -3.175288
H    4.466254  -0.814018  -4.301886
H    5.226491  -5.212621  -1.000270
H    4.665866  -5.298490  -4.023718
H    5.508155   3.556899  -2.081798
H    7.801867   2.727876   3.327241
H    7.954651   5.645614   1.499781

