%chk=mol_5931.chk
# wB97XD/Def2SVP opt pop=full gfinput

C 5 H 9 N 1 O 1

1 2
O    2.050523   0.184494   0.552688
C    4.772258   0.084943   0.291868
C    5.859493  -1.748167  -1.766611
C    8.721672  -1.430050  -1.700262
C    8.832013   1.449571  -1.588353
C    6.003169   1.986064  -1.619098
N    4.874246   0.235649  -3.634964
H    1.505299   0.303849  -1.209236
H    5.658199  -0.026022   2.158105
H    5.048554  -3.633320  -1.933719
H    9.571160  -2.306959  -0.030689
H    9.638850  -2.177834  -3.396802
H    9.805429   2.255804  -3.225422
H    9.739649   2.127907   0.141503
H    5.334829   3.934278  -1.635747
H    5.806051   0.264977  -5.323529

