%chk=mol_2525.chk
# wB97XD/Def2SVP opt pop=full gfinput

C 5 H 10 O 2

1 2
C    1.983646  -0.001550  -0.046431
C    4.804667   0.100288   0.019672
O    5.862554   0.027250   2.512296
C    6.339691  -1.190471  -1.997214
C    6.204821   1.658442  -1.912119
C    8.457771   3.190217  -1.201072
O    9.934139   3.617881  -3.404776
H    1.252284   0.051401  -1.981208
H    1.186011   1.604434   0.983924
H    1.309051  -1.742271   0.843385
H    5.425423  -1.536593   3.376676
H    5.354823  -2.141910  -3.520730
H    8.085325  -2.104909  -1.437439
H    5.095760   2.606556  -3.352733
H    9.653061   2.265612   0.210497
H    7.868744   5.024933  -0.454177
H   10.455250   1.963161  -4.007259

