%chk=mol_0596.chk
# wB97XD/Def2SVP opt pop=full gfinput

C 4 H 8 O 2

1 2
C    1.316119   2.343865  -0.410184
C   -1.416973   2.264629   0.460885
O   -2.600414   0.004762  -0.399677
C   -1.266022  -2.164927   0.459506
O    1.262413  -2.217197  -0.451399
C    2.638417  -0.068862   0.406707
H    1.343425   2.439466  -2.479548
H    2.285737   4.011870   0.330513
H   -2.463806   3.870934  -0.315698
H   -1.554886   2.366428   2.526658
H   -1.301398  -2.274569   2.529247
H   -2.236434  -3.834292  -0.276032
H    2.837348  -0.160551   2.467529
H    4.537213  -0.156923  -0.409560

