%chk=mol_5401.chk
# wB97XD/Def2SVP opt pop=full gfinput

C 4 H 9 N 1 O 2

1 2
C    7.381610  -2.169443   0.043898
O    5.849591  -0.256833   1.152090
C    6.000750   2.071744  -0.177407
C    8.463252   3.423201   0.321745
N    9.998711   3.959486  -1.505110
O   12.114108   5.195915  -0.494863
C   13.760173   5.853786  -2.516737
H    7.065950  -3.928268   1.081056
H    9.384304  -1.678908   0.189086
H    6.859781  -2.471346  -1.933984
H    4.486342   3.287046   0.535265
H    5.701719   1.789193  -2.206142
H    8.877518   3.921276   2.304521
H   15.434811   6.768187  -1.724904
H   12.820582   7.176745  -3.798746
H   14.349182   4.159098  -3.545353

