%chk=mol_4994.chk
# wB97XD/Def2SVP opt pop=full gfinput

C 4 H 8 N 2 O 1

1 2
C    1.902614  -0.032957  -0.331193
N    4.639618   0.050342  -0.699010
C    5.739854   2.290046   0.501420
C    8.507623   2.336892  -0.266810
O    9.736474  -0.015307   0.300637
C    8.259785  -2.104135   0.102026
N    5.856734  -2.189928  -0.349373
H    1.009662   1.725944  -0.957808
H    1.419506  -0.355552   1.655759
H    1.074763  -1.562992  -1.453256
H    4.814474   4.031825  -0.125837
H    5.571461   2.146351   2.561788
H    9.501959   3.826828   0.767399
H    8.739285   2.711908  -2.291595
H    9.384606  -3.821366   0.425169

