%chk=mol_2078.chk
# wB97XD/Def2SVP opt pop=full gfinput

C 5 H 10 N 2

1 2
N    1.802118  -0.005764  -0.034355
C    4.566920   0.011301   0.032144
C    5.626451   2.707637   0.000000
C    8.355216   2.707637   0.000000
C   10.604293   2.707637   0.000000
C   13.333057   2.707637   0.000000
N   14.279791   5.289098   0.040346
H    1.182420  -1.830124  -0.045353
H    1.190527   0.777679  -1.684710
H    5.285697  -1.061251  -1.589146
H    5.197597  -0.974532   1.741987
H    4.920620   3.749084   1.647066
H    4.930617   3.706660  -1.677661
H   14.054384   1.739890  -1.681081
H   14.058750   1.696369   1.652282
H   13.585449   6.228764  -1.490597
H   16.193138   5.263039  -0.155695

