%chk=mol_0650.chk
# wB97XD/Def2SVP opt pop=full gfinput

C 4 H 6 O 2

1 2
C    1.975142   0.113497   0.291075
C    4.763943  -0.162365  -0.255888
O    6.238572   1.775001   1.010323
C    7.771934  -0.003779   2.419284
C    6.196846  -2.130893   1.285543
O    6.113982  -4.408731   1.520058
H    0.925021  -1.505790  -0.452684
H    1.223541   1.819825  -0.603730
H    1.601996   0.239674   2.321850
H    5.213244  -0.232758  -2.275136
H    9.746697   0.027892   1.825967
H    7.573096   0.235214   4.456938

