%chk=mol_4125.chk
# wB97XD/Def2SVP opt pop=full gfinput

C 5 H 7 N 1 O 1

1 2
C    1.767102  -0.334633  -0.010526
C    4.518222   0.077951  -0.006293
C    6.074430   2.170161  -0.013568
C    5.398286   4.878253  -0.029272
N    8.560006   1.401893  -0.004838
C    8.409282  -1.076728   0.007200
O    6.019194  -2.025125   0.007011
H    0.741566   1.460683   0.007105
H    1.194742  -1.417030   1.655816
H    1.195724  -1.384073  -1.698127
H    7.091122   6.066267  -0.007559
H    4.260406   5.351686   1.631741
H    4.308727   5.343390  -1.724659
H    9.932986  -2.434742   0.016989

