%chk=mol_5755.chk
# wB97XD/Def2SVP opt pop=full gfinput

C 4 H 6 N 2 O 1

1 2
N    2.004565  -0.569658  -0.214673
C    4.548533  -0.075136  -0.142107
C    5.770317   2.150489   0.000000
C    4.459773   4.666036   0.030878
O    4.460056   5.688227   2.515868
C    8.427272   2.150489   0.000000
N   10.602365   2.150489   0.000000
H    1.499668  -2.324325   0.400981
H    0.826906   0.815285   0.406178
H    5.640795  -1.824871  -0.238842
H    2.497821   4.545150  -0.610911
H    5.413725   6.009159  -1.222917
H    3.781682   4.410432   3.648286

