%chk=mol_5400.chk
# wB97XD/Def2SVP opt pop=full gfinput

C 4 H 11 N 1 O 2

1 2
C    6.077964  -1.908453   0.468425
O    4.862946  -0.068144   2.002410
C    5.452370   2.454641   1.201356
C    3.680827   4.350320   2.592137
N    3.528893   4.009375   5.355371
O    8.079638   3.041023   1.389100
C    9.037275   3.080367   3.893837
H    5.464464  -3.778753   1.096684
H    8.131246  -1.797167   0.672176
H    5.543644  -1.678474  -1.516581
H    4.984210   2.604364  -0.814075
H    1.762170   4.073532   1.858338
H    4.260577   6.294224   2.186167
H    3.308287   2.116644   5.684031
H    1.941259   4.873131   6.014356
H   11.101876   3.077608   3.781871
H    8.454862   1.411550   4.966446
H    8.473060   4.815135   4.861907

