%chk=mol_6086.chk
# wB97XD/Def2SVP opt pop=full gfinput

C 4 H 5 N 1 O 2

1 2
O    1.757861  -0.108697   0.008731
C    4.075932  -0.029669  -0.004327
N    5.481113  -2.203723   0.021732
C    8.043261  -2.315463   0.011962
C    9.362251  -0.177105  -0.028894
C    8.069736   2.319336  -0.064874
O    5.352763   2.196788  -0.043672
H    4.444012  -3.810727   0.051608
H    8.908358  -4.174405   0.038210
H   11.411905  -0.213520  -0.037832
H    8.647273   3.429551   1.582324
H    8.623973   3.369533  -1.758957

