%chk=mol_0534.chk
# wB97XD/Def2SVP opt pop=full gfinput

C 5 H 7 N 1

1 2
N    1.785168  -0.070147   0.052213
C    3.977571  -0.033410   0.036698
C    6.708641   0.012453   0.016271
C    7.967388   1.989787   1.774887
C   10.022597  -0.004838   2.318429
C    8.033868  -2.028394   1.649051
H    7.478818   0.085567  -1.912497
H    6.858742   2.507667   3.447919
H    8.631608   3.716316   0.854307
H   11.620645   0.062814   1.002500
H   10.741203  -0.053555   4.253547
H    8.753835  -3.671077   0.622967
H    6.944668  -2.686265   3.285270

