%chk=mol_6946.chk
# wB97XD/Def2SVP opt pop=full gfinput

C 6 H 13 N 1

1 2
C    4.315435  -2.255142  -1.402063
C    3.601950   0.237690  -0.155222
C    5.880185   1.823812   0.566597
C    7.385541   0.852852   2.782886
N    7.295741   3.097450  -1.460078
C    5.684485   4.669759   0.122435
C    6.870232   6.572467   1.825929
H    2.610902  -3.286120  -1.958096
H    5.393165  -3.463282  -0.117730
H    5.460345  -1.943621  -3.095258
H    2.471554  -0.139613   1.541242
H    2.369282   1.284995  -1.453880
H    9.124637   1.927426   3.100889
H    7.946960  -1.116261   2.492303
H    6.249815   0.950608   4.509907
H    6.481685   2.784360  -3.181184
H    3.978384   5.406015  -0.742209
H    8.836680   6.128778   2.291425
H    5.798492   6.713460   3.589157
H    6.853640   8.434471   0.921978

