%chk=mol_2687.chk
# wB97XD/Def2SVP opt pop=full gfinput

C 7 H 10

1 2
C    4.219494  -1.755612   2.173072
C    3.928174  -0.014740  -0.055671
C    2.491094  -0.633984  -2.056003
C    5.281085   2.403429   0.070166
C    3.923865   4.556111   0.013360
C    8.002518   2.628817   0.487757
C    9.723038   0.964781  -0.331345
H    6.176872  -2.388293   2.385005
H    3.043876  -3.450167   1.980754
H    3.644016  -0.801735   3.918461
H    1.487630  -2.419927  -2.141816
H    2.295526   0.620888  -3.668922
H    1.883055   4.534303  -0.194415
H    4.803136   6.402487   0.162989
H    8.653680   4.294214   1.504449
H    9.196352  -0.709384  -1.393087
H   11.717927   1.264567   0.031256

