%chk=mol_2952.chk
# wB97XD/Def2SVP opt pop=full gfinput

C 6 H 12 O 1

1 2
C    5.496287  -1.735978  -1.115845
C    4.976027  -0.008806   1.128525
C    6.287459   2.582103   0.923396
C    5.417902   4.300790   3.106785
O    6.261608   6.834799   2.754635
C    9.140077   2.297321   0.959017
C   10.665936   3.088701  -0.899925
H    4.424907  -3.494916  -0.918237
H    7.498641  -2.234148  -1.248221
H    4.926044  -0.836752  -2.889316
H    5.553867  -0.971697   2.871420
H    2.925561   0.273424   1.258577
H    5.719577   3.480630  -0.859051
H    6.111072   3.628728   4.939045
H    3.351505   4.362452   3.197436
H    8.087064   6.771739   2.533820
H    9.971783   1.383223   2.603929
H    9.930795   4.002270  -2.584522
H   12.697165   2.824933  -0.778945

