%chk=mol_1171.chk
# wB97XD/Def2SVP opt pop=full gfinput

C 6 H 15 N 1

1 2
C    5.519682  -1.700376  -2.082856
C    4.720347   0.087249   0.029215
C    5.780918   2.821815  -0.139292
C    4.853705   4.115634  -2.581441
C    4.723994   4.338037   2.120027
C    8.713490   2.898160  -0.127084
N    9.860988   1.688640   2.072935
H    4.692852  -3.570732  -1.763303
H    7.570394  -1.934702  -2.156064
H    4.861528  -1.042902  -3.927777
H    5.269558  -0.764715   1.838647
H    2.646070   0.163121   0.048339
H    5.643081   3.220112  -4.271669
H    5.417221   6.108653  -2.625888
H    2.789576   4.045148  -2.729842
H    5.184955   3.444744   3.929251
H    2.659941   4.483716   2.016432
H    5.485535   6.263611   2.150716
H    9.360664   4.867330  -0.197665
H    9.457494   1.984704  -1.831012
H    9.365520   2.638681   3.672380
H   11.777434   1.826666   1.945983

