%chk=mol_6264.chk
# wB97XD/Def2SVP opt pop=full gfinput

C 4 H 5 N 1 O 2

1 2
O    4.971397   6.178989  -0.523265
C    4.665866   4.418426  -1.983702
C    6.023615   1.938897  -1.643551
O    5.188980   0.007616  -2.597315
C    8.361698   2.066340  -0.118902
C   10.359687   0.049095  -0.370556
N   10.690351   2.494231  -1.587559
H    3.370308   4.460585  -3.610719
H    8.230456   3.072128   1.661825
H   10.002245  -1.538294  -1.615621
H   11.554730  -0.354437   1.240435
H   11.919637   3.604671  -0.592429

