%chk=mol_2134.chk
# wB97XD/Def2SVP opt pop=full gfinput

C 5 H 6 N 2

1 2
N    1.726151   0.065630   0.285746
N    4.279833  -0.067955   0.145244
C    5.453051   2.072916   0.107620
C    4.456787   4.687182   0.232417
C    6.482384   6.185943   0.097321
C    8.753873   4.722501  -0.097831
C    8.231723   2.255180  -0.087929
H    1.014821  -1.719726   0.493540
H    0.990292   0.707041  -1.382524
H    2.497179   5.187279   0.417970
H    6.449352   8.225770   0.149043
H   10.620941   5.536312  -0.220455
H    9.487181   0.662311  -0.197439

