%chk=mol_6266.chk
# wB97XD/Def2SVP opt pop=full gfinput

C 4 H 7 N 1 O 2

1 2
O    1.772941  -0.676673  -0.849508
C    4.435187  -0.981051  -0.632170
C    5.683238   1.346430   0.498037
O    4.478745   3.062452   1.495359
C    8.475988   1.496285   0.295156
C   10.023542   1.747033   2.674095
N    9.892074  -0.653618   1.325265
H    1.264378   0.403910   0.560644
H    5.194045  -1.322657  -2.523484
H    4.808862  -2.613794   0.576744
H    9.202286   2.362706  -1.411531
H    9.043549   1.839724   4.470771
H   11.793799   2.769261   2.586109
H   11.522738  -0.953783   0.332705

