%chk=mol_1578.chk
# wB97XD/Def2SVP opt pop=full gfinput

C 5 H 10 N 2

1 2
C    3.536585  -1.025309  -0.961682
C    6.230578  -0.670815  -0.032201
N    7.453987   1.337113  -1.446245
C    9.904716   2.103001  -1.065862
N   11.620133   0.642998  -0.104143
C   10.801373   4.691188  -1.741458
C    9.407756   6.459953  -2.893114
H    2.598657  -2.529021   0.104596
H    3.507710  -1.537424  -2.967097
H    2.433684   0.711406  -0.735784
H    7.250596  -2.455435  -0.269267
H    6.211983  -0.194321   1.982096
H    6.254011   2.756128  -1.906110
H   10.874845  -1.099481   0.230339
H   12.754706   5.077996  -1.238678
H    7.469142   6.171694  -3.473770
H   10.237931   8.288812  -3.313937

