%chk=mol_3707.chk
# wB97XD/Def2SVP opt pop=full gfinput

C 5 H 6 O 2

1 2
O    1.891219  -0.009486  -0.065082
C    4.573137   0.000000   0.000000
C    5.484023   2.572238   0.000000
C    6.234774   4.692322   0.000000
C    7.383973   7.131826   0.112042
C    7.275918   8.856070  -2.145312
O    5.629437   9.190343  -0.022866
H    1.367047  -1.766478  -0.011603
H    5.266988  -1.032811  -1.651677
H    5.187449  -1.002330   1.701396
H    8.976577   7.346499   1.382354
H    6.443456   8.170344  -3.882405
H    8.793803  10.205598  -2.394151

