%chk=mol_0794.chk
# wB97XD/Def2SVP opt pop=full gfinput

C 4 H 6 O 2

1 2
C    1.932623  -0.522320   0.679999
C    4.188635   0.113270  -0.913135
O    5.284638  -1.410907  -2.264629
C    5.115149   2.830507  -0.793175
C    7.365132   3.468800  -2.393735
O    4.023737   4.353967   0.565538
H    0.316699   0.624555   0.097415
H    2.367146  -0.197798   2.672904
H    1.452047  -2.516397   0.425472
H    6.927169   3.135358  -4.384183
H    8.986328   2.330259  -1.810509
H    7.838717   5.465825  -2.148278

