%chk=mol_4229.chk
# wB97XD/Def2SVP opt pop=full gfinput

C 5 H 7 N 1 O 1

1 2
C    3.459162  -1.606267  -1.877311
C    4.035907   0.139764  -0.136684
C    5.816690   2.335494  -0.404685
C    6.658525   3.051738  -3.040985
C    6.889167   5.807525  -2.634675
N    5.737360   6.685360  -0.677183
O    4.591165   4.581357   0.525816
H    2.128531  -3.107409  -1.436400
H    4.269949  -1.609820  -3.760120
H    3.143559  -0.013871   1.713358
H    7.461772   2.000577   0.813867
H    5.248828   2.742975  -4.520508
H    8.456223   2.197846  -3.584678
H    7.904119   7.003476  -3.994881

