%chk=mol_4714.chk
# wB97XD/Def2SVP opt pop=full gfinput

C 4 H 6 N 2 O 1

1 2
C    6.932196  -3.736253  -0.228203
C    8.551635  -1.805104  -0.101270
N    7.742775   0.634683  -0.344686
C    9.456114   2.344527  -0.189842
N    8.753438   4.808767  -0.419255
C   10.348386   6.836557  -0.297311
O    9.652929   9.030831  -0.510358
H    7.574570  -5.670879  -0.035036
H    4.930976  -3.407554  -0.528500
H   10.548678  -2.201966   0.201974
H   11.494089   2.016432   0.117749
H    6.898407   5.162751  -0.701958
H   12.342539   6.319017   0.013833

