%chk=mol_2679.chk
# wB97XD/Def2SVP opt pop=full gfinput

C 5 H 8 O 2

1 2
C    1.930828   0.674481   1.301927
C    4.389947   0.514402   0.705699
C    6.064944   2.614946  -0.203637
O    4.751678   4.980751  -0.262464
C    6.399595   6.702348   0.993769
C    7.799694   5.058438   2.840221
O    8.199446   2.779938   1.457621
H    0.893784  -0.971905   1.945946
H    0.906691   2.448424   1.157495
H    5.319711  -1.308465   0.881614
H    6.752936   2.185260  -2.107423
H    7.676502   7.512512  -0.420200
H    5.327289   8.220252   1.894450
H    9.596842   5.866031   3.458331
H    6.642179   4.615902   4.498436

