%chk=mol_3791.chk
# wB97XD/Def2SVP opt pop=full gfinput

C 5 H 8 O 2

1 2
O    1.804556   0.224556  -0.918256
C    3.898713   0.134794   0.571963
O    4.224237  -1.637051   2.030964
C    5.701511   2.410402   0.196097
C    4.586441   5.116112   0.453969
C    7.110756   5.913879   1.659387
C    7.464003   3.131541   2.432890
H    1.765155   1.703305  -2.018511
H    6.777182   2.191421  -1.570098
H    2.966435   5.249413   1.738661
H    4.114293   6.062034  -1.321183
H    8.513595   6.582786   0.290772
H    6.978815   7.270154   3.210437
H    9.398591   2.416695   2.314083
H    6.696434   2.684242   4.304664

