%chk=mol_3826.chk
# wB97XD/Def2SVP opt pop=full gfinput

C 5 H 7 N 1 O 1

1 2
C   -2.624678   1.289039   0.032239
C   -2.888087  -1.571137  -0.100968
C   -0.488872  -3.048865   0.286860
C    1.873286  -2.169746   0.551932
C    2.642461   0.534433   0.623515
N    1.577411   2.535521  -0.293134
O   -0.647212   2.027431  -1.648767
H   -4.373469   2.188208  -0.611308
H   -2.271659   1.942752   1.968811
H   -3.612778  -2.085275  -1.974707
H   -4.296047  -2.188473   1.286015
H   -0.741113  -5.091867   0.296800
H    3.425374  -3.487433   0.812034
H    4.440403   0.843177   1.635652

