%chk=mol_2619.chk
# wB97XD/Def2SVP opt pop=full gfinput

C 6 H 8 O 1

1 2
C    2.029377  -0.221438  -0.681227
C    4.544829   0.019899  -0.572511
C    5.878654   2.371739  -0.322028
C    8.383637   2.619217  -0.213199
C    9.077678   5.316877   0.044957
O    6.738688   6.693694   0.083053
C    4.687409   4.916670  -0.142844
H    1.178017  -2.078737  -0.871995
H    0.752716   1.378933  -0.587006
H    5.692573  -1.683274  -0.680169
H    9.748663   1.105301  -0.296914
H   10.094785   5.682218   1.806559
H   10.211626   5.973670  -1.553185
H    3.601081   5.394223  -1.836511
H    3.483464   5.102280   1.528297

