%chk=mol_7005.chk
# wB97XD/Def2SVP opt pop=full gfinput

C 6 H 13 N 1

1 2
C    2.033855  -0.471014  -0.774429
C    4.885169  -0.283043  -1.063765
C    6.036314   1.489898   0.901702
C    8.843408   1.705440   0.568789
C   10.511847   2.188038   2.826274
C   10.566007  -0.341814   1.539276
N   12.776722  -1.061402   0.056238
H    1.253833  -1.770692  -2.182709
H    1.138352   1.375437  -1.039538
H    1.523063  -1.177432   1.102277
H    5.338344   0.384918  -2.972520
H    5.713908  -2.172977  -0.880726
H    5.576808   0.809502   2.805620
H    5.204060   3.377451   0.719211
H    9.332923   2.656445  -1.179057
H    9.658825   2.281655   4.686124
H   12.113561   3.443194   2.593838
H    9.699757  -1.899383   2.562488
H   13.592441   0.469087  -0.782195
H   12.270540  -2.241971  -1.379254

