%chk=mol_0070.chk
# wB97XD/Def2SVP opt pop=full gfinput

C 4 H 8 O 1

1 2
C    1.809942  -2.066831  -0.032409
C    3.898826  -0.102593   0.038154
O    2.753407   2.333717   0.224915
C    4.327246   4.373526   0.320157
C    6.852695   4.448793   0.267812
H    2.595237  -3.972639  -0.180393
H    0.551573  -1.735298  -1.641530
H    0.646116  -1.954544   1.675318
H    5.018999  -0.232625  -1.698410
H    5.108213  -0.450605   1.683387
H    3.201328   6.083766   0.455991
H    8.018580   2.771340   0.133887
H    7.824732   6.251516   0.361939

