%chk=mol_2847.chk
# wB97XD/Def2SVP opt pop=full gfinput

C 6 H 12 O 1

1 2
C    5.687376  -2.922594   0.275711
C    4.710067  -0.477326   1.436929
C    6.218560   1.854804   0.589084
C    4.981016   4.269817   1.572857
C    8.944830   1.782012   1.521815
C   10.897238   3.046087  -0.127934
O    9.544912   0.810050   3.547866
H    4.521718  -4.515765   0.895768
H    7.636629  -3.310573   0.844519
H    5.615019  -2.843452  -1.789892
H    4.741549  -0.651237   3.501946
H    2.725269  -0.245627   0.885280
H    6.248417   1.905127  -1.483076
H    4.865119   4.261635   3.640066
H    3.065022   4.476100   0.820538
H    6.063867   5.945116   1.021510
H   10.433103   5.044869  -0.356988
H   10.955593   2.112204  -1.968755
H   12.757900   2.892566   0.755097

