%chk=mol_2449.chk
# wB97XD/Def2SVP opt pop=full gfinput

C 6 H 10 O 1

1 2
C    1.967337   0.141125   0.309707
C    4.785089  -0.135947  -0.214030
C    5.475670  -2.789708  -1.167435
O    5.755085  -2.608843  -3.870121
C    6.437957  -0.031521  -4.466424
C    4.360260   1.851780  -4.775980
C    5.701436   1.595118  -2.269126
H    1.492449   2.105249   0.760123
H    1.411550  -1.039444   1.917335
H    0.813489  -0.434165  -1.308730
H    5.802347   0.241507   1.550993
H    4.062288  -4.226183  -0.706909
H    7.302506  -3.387977  -0.400622
H    8.227528   0.315263  -5.397908
H    4.749014   3.521750  -5.897495
H    2.455378   1.138957  -5.002899
H    6.988113   3.054761  -1.650449

