%chk=mol_5852.chk
# wB97XD/Def2SVP opt pop=full gfinput

C 5 H 7 N 1 O 1

1 2
N    5.137296  -2.517682  -1.994379
C    5.746846  -0.915988  -0.080918
O    5.641003  -1.563087   2.134257
C    6.537829   1.623690  -0.941348
C    7.278129   3.351883   0.757005
C    8.078731   5.866069   0.060774
C    8.844674   7.578804   1.755915
H    5.229496  -2.061994  -3.843230
H    4.597779  -4.287203  -1.512839
H    6.498655   2.023443  -2.945573
H    7.292170   2.872440   2.760153
H    8.054391   6.377259  -1.930317
H    8.909549   7.172323   3.765979
H    9.433418   9.450047   1.156512

