%chk=mol_1463.chk
# wB97XD/Def2SVP opt pop=full gfinput

C 6 H 7 N 1

1 2
C    5.057229  -2.232315   0.558924
C    4.227449   0.143657   0.278886
N    5.690514   2.337610   0.162384
C    4.740756   4.756819  -0.129446
C    6.703860   6.464205  -0.167562
C    8.956867   5.071383   0.109207
C    8.290568   2.562299   0.306608
H    3.725142  -3.792057   0.623156
H    7.045088  -2.702743   0.730606
H    2.206028   0.469068   0.118939
H    2.725155   5.058740  -0.286766
H    6.522428   8.491088  -0.372900
H   10.864565   5.807034   0.160457
H    9.468114   0.910583   0.539573

