%chk=mol_7122.chk
# wB97XD/Def2SVP opt pop=full gfinput

C 6 H 9 N 1

1 2
C    1.866690   0.019691   0.269702
C    4.762110   0.000000   0.000000
C    5.913463  -1.412438   2.266349
C    5.436251  -1.446850  -2.405035
C    6.717145  -0.621115  -4.431937
C    5.672996   2.572238   0.000000
N    6.399047   4.622572   0.000000
H    0.964025   1.001082  -1.318481
H    1.277228   0.990935   2.003847
H    1.093811  -1.901934   0.338885
H    5.437706  -0.480973   4.056373
H    7.982336  -1.483171   2.144083
H    5.225868  -3.364223   2.378296
H    4.780535  -3.401242  -2.458307
H    7.458069   1.287924  -4.586592
H    7.063116  -1.869166  -6.026374

