%chk=mol_3017.chk
# wB97XD/Def2SVP opt pop=full gfinput

C 5 H 12 O 2

1 2
C    0.796822   0.456331  -0.640636
C    3.363429   0.035187   0.580656
C    4.906334   2.462181   0.955030
C    3.510431   4.426570   2.575168
O    5.098236   6.583239   2.934801
O    7.228089   1.919735   2.280087
C    9.112732   0.791720   0.730058
H   -0.081220  -1.363003  -1.089748
H    0.975004   1.533343  -2.396532
H   -0.486302   1.465690   0.626671
H    4.433052  -1.281423  -0.608756
H    3.122168  -0.932826   2.399102
H    5.373285   3.327959  -0.869123
H    3.064210   3.670264   4.448056
H    1.768066   5.075256   1.676300
H    6.733283   5.881792   3.433632
H   10.840017   0.615314   1.849947
H    9.517549   1.982342  -0.911755
H    8.544718  -1.097534   0.125553

