%chk=mol_1157.chk
# wB97XD/Def2SVP opt pop=full gfinput

C 4 H 5 N 1 S 1

1 2
N    1.894488   0.030708  -0.018670
C    4.433127   0.069769  -0.004573
C    5.841937   2.249700   0.002135
S    9.020759   1.629227   0.020504
C    8.495301  -1.563900   0.018519
C    5.953355  -2.137715   0.004384
H    0.829042   1.625618  -0.000567
H    0.881727  -1.597404   0.000907
H    5.184634   4.182606  -0.002891
H   10.071919  -2.863105   0.027552
H    5.244802  -4.055655   0.000510

