%chk=mol_3390.chk
# wB97XD/Def2SVP opt pop=full gfinput

C 6 H 12 O 1

1 2
C    9.379429  -0.271875   3.846556
O    7.681567   1.811019   3.933805
C    7.344987   3.003380   1.527220
C    4.935757   4.585968   1.676792
C    9.632180   4.607568   0.869633
C   10.424335   6.592026   2.746566
C   10.926264   4.252715  -1.287263
H    9.391277  -1.167964   5.707351
H   11.299807   0.359634   3.421311
H    8.759447  -1.667097   2.453280
H    7.033693   1.539182   0.089800
H    5.004297   5.937954   3.242184
H    3.307474   3.361483   2.045685
H    4.591940   5.616002  -0.082846
H   10.732643   5.756616   4.612406
H    8.978184   8.061326   2.909706
H   12.188507   7.518389   2.188397
H   10.382382   2.816561  -2.647998
H   12.571498   5.390538  -1.751833

