%chk=mol_0143.chk
# wB97XD/Def2SVP opt pop=full gfinput

C 4 H 9 N 1

1 2
C    1.952824   0.028025  -0.130145
C    4.767968   0.014853  -0.023697
C    6.259113  -1.334789  -2.034819
C    6.282092   1.502653  -1.915313
N    8.575332   2.799686  -1.106680
H    1.201280   1.489614   1.126390
H    1.207875  -1.799359   0.490535
H    1.244385   0.397069  -2.039525
H    5.446682  -0.128180   1.903030
H    5.252739  -2.209940  -3.589894
H    7.942500  -2.354731  -1.466522
H    5.252947   2.473727  -3.408348
H    9.464032   1.845866   0.310765
H    8.153904   4.537894  -0.390739

