%chk=mol_4880.chk
# wB97XD/Def2SVP opt pop=full gfinput

C 4 H 7 N 1 O 2

1 2
C    1.605379   0.657927   1.397358
C    3.401923   2.500674   0.206150
O    4.513497   1.870961  -2.028035
C    3.787106  -0.270836  -3.396915
C    5.471173  -1.686203  -4.628638
N    3.868080   4.632172   1.334695
O    5.590698   6.087998  -0.056881
H    1.123820   1.282311   3.310139
H    2.476845  -1.209670   1.541223
H   -0.141106   0.557488   0.298917
H    1.770617  -0.582792  -3.454684
H    7.471127  -1.238205  -4.559399
H    4.881238  -3.301994  -5.741026
H    5.774587   7.594753   0.985927

