%chk=mol_5673.chk
# wB97XD/Def2SVP opt pop=full gfinput

C 4 H 10 N 2 O 1

1 2
N    2.968174  -0.303414   2.242973
C    4.263808   0.320875  -0.109472
C    6.188418   2.308074   0.418007
O    6.479266   4.168490  -1.537557
C    5.424081   5.024631   0.808841
C    7.064061   6.756905   2.308225
N    6.159997   9.340954   1.993321
H    1.669233  -1.681856   1.888460
H    1.951161   1.227982   2.823440
H    2.883930   0.946639  -1.520322
H    5.199374  -1.370052  -0.848430
H    7.865739   1.590979   1.340950
H    3.431006   5.471210   0.901418
H    9.044135   6.634035   1.710712
H    6.970066   6.241917   4.309653
H    6.326860   9.823552   0.133982
H    7.327130  10.532558   2.955021

