%chk=mol_0911.chk
# wB97XD/Def2SVP opt pop=full gfinput

C 4 H 8 O 2

1 2
O    1.492317  -0.003326  -0.087400
C    4.175671   0.079274  -0.165181
C    5.140773   2.748985   0.079917
C    3.646000   4.784881   0.388093
C    7.962777   3.009483  -0.087834
O    9.090206   1.717175   1.971873
H    1.022909  -1.773621  -0.201653
H    4.790097  -0.735217  -1.965315
H    4.895657  -1.088312   1.384111
H    1.603451   4.596929   0.490781
H    4.408278   6.682412   0.536890
H    8.579413   4.984530  -0.028743
H    8.666870   2.186035  -1.852064
H    8.358069   2.436254   3.497883

