%chk=mol_0032.chk
# wB97XD/Def2SVP opt pop=full gfinput

C 3 H 5 N 1

1 2
N    1.917467  -0.028667   0.034374
C    4.667624   0.000000   0.000000
C    5.578509   2.572238   0.000000
C    6.329260   4.692322   0.000000
H    1.306122  -1.844770  -0.140615
H    1.265247   0.917821  -1.510118
H    5.341481  -1.005391  -1.678757
H    5.375572  -1.019942   1.654644
H    6.987962   6.593406   0.011792

