%chk=mol_1272.chk
# wB97XD/Def2SVP opt pop=full gfinput

C 6 H 15 N 1

1 2
C    3.634491  -2.547370   0.492122
C    6.009840  -1.429748  -0.726619
C    5.445189  -0.673631  -3.460108
C    6.964283   0.828267   0.861639
N    9.248093   2.069874  -0.137610
C    9.736247   4.413625   1.253682
C   11.469164   0.426322   0.000113
H    4.025665  -3.168334   2.427089
H    2.965547  -4.190392  -0.573570
H    2.099354  -1.160821   0.560720
H    7.445370  -2.923576  -0.745535
H    4.032997   0.837186  -3.543652
H    4.714735  -2.288402  -4.529409
H    7.151045  -0.013795  -4.426041
H    7.287124   0.208456   2.816542
H    5.430052   2.225134   0.935981
H    8.134628   5.714891   1.077314
H   11.380404   5.399307   0.469219
H   10.080593   4.070055   3.267639
H   11.255134  -1.229853  -1.219743
H   11.844766  -0.220644   1.931565
H   13.152626   1.420280  -0.685933

