%chk=mol_3725.chk
# wB97XD/Def2SVP opt pop=full gfinput

C 6 H 8 O 1

1 2
O    5.886176  -1.353932   1.812153
C    4.659271  -0.019653  -0.165880
C    5.161503   2.752103   0.169641
C    3.297893   4.400322   0.697460
C    7.877777   3.589308  -0.079047
C    8.540391   3.935071  -2.758377
C    9.087183   4.249181  -4.937911
H    5.476483  -3.128404   1.580284
H    2.636508  -0.449793  -0.078839
H    5.384076  -0.688333  -1.984194
H    1.348376   3.794400   0.896694
H    3.680090   6.402033   0.940120
H    9.146766   2.214532   0.808141
H    8.176089   5.374230   0.933052
H    9.569177   4.545113  -6.870459

