%chk=mol_3467.chk
# wB97XD/Def2SVP opt pop=full gfinput

C 5 H 8 O 2

1 2
C    2.876296  -1.060892   0.771670
O    5.472685  -0.378607   0.666714
C    5.787985   2.227382  -0.039873
C    8.619910   2.851672  -0.209174
O    9.830469   2.105798   2.082724
C    9.844680   1.560252  -2.346926
C   10.851015   0.499549  -4.082205
H    2.748720  -3.053306   1.302683
H    1.987387  -0.812847  -1.078788
H    1.889254   0.068276   2.194898
H    4.921962   3.392172   1.438535
H    4.840004   2.592137  -1.845488
H    8.859452   4.896810  -0.414171
H    9.259413   0.370386   2.354466
H   11.753718  -0.454744  -5.608802

