%chk=mol_2632.chk
# wB97XD/Def2SVP opt pop=full gfinput

C 7 H 10

1 2
C    1.667853   1.128034  -1.921171
C    4.491350   1.138976  -1.905959
C    5.894018   2.126036  -0.035432
C    8.732462   2.150489   0.000000
C    9.643348   4.722747   0.000000
C   10.394098   6.842812   0.000000
C   11.304984   9.415051   0.000000
H    0.969203   2.164946  -3.568200
H    0.872468   2.001957  -0.223574
H    0.972075  -0.815908  -2.032589
H    5.411306   0.298690  -3.541441
H    4.963744   2.967002   1.595307
H    9.499294   1.119568  -1.624711
H    9.380203   1.154150   1.695916
H    9.804711  10.736120  -0.529709
H   12.860286   9.654308  -1.341762
H   11.995415   9.960558   1.871452

