%chk=mol_1869.chk
# wB97XD/Def2SVP opt pop=full gfinput

C 4 H 7 N 3

1 2
C    2.803957  -0.867139  -1.801570
N    5.287775  -0.593204  -0.622665
N    6.076093   1.830162  -0.316472
C    8.488139   2.123580   0.032390
C   10.495879   0.133963   0.115065
C    9.203741   4.741890   0.349656
N    9.862726   6.817943   0.625688
H    2.349100  -2.872724  -2.012804
H    2.790162  -0.007729  -3.682849
H    1.334638   0.019804  -0.647156
H    5.214416  -1.502635   1.085837
H   10.075982  -1.219327   1.619760
H   12.351382   0.969429   0.475852
H   10.557711  -0.863567  -1.694196

