%chk=mol_7049.chk
# wB97XD/Def2SVP opt pop=full gfinput

C 6 H 11 N 1

1 2
C    1.916258   1.101181   2.153532
C    4.686162   1.091241   1.611029
C    5.777497   2.552340  -0.153276
C    8.555055   2.566229  -0.757289
C    9.801424   5.077373  -0.306703
C   11.842026   6.014923  -2.060879
N    9.339518   7.172172  -2.054567
H    1.134289  -0.790302   1.856618
H    0.884732   2.421590   0.939761
H    1.584724   1.641737   4.122135
H    5.833075  -0.193376   2.732280
H    4.624292   3.832648  -1.278891
H    8.777117   1.991129  -2.736531
H    9.547558   1.141640   0.373108
H    9.924274   5.552015   1.681554
H   12.304763   4.919430  -3.727353
H   13.370946   7.132582  -1.287527
H    9.346566   8.853632  -1.104791

