%chk=mol_0432.chk
# wB97XD/Def2SVP opt pop=full gfinput

C 5 H 13 N 1

1 2
C    2.172788  -0.403910  -1.017788
C    5.041751  -0.333215  -0.819688
N    5.903826   2.290594  -0.714298
C    8.634764   2.532781  -0.281229
C   10.194733   1.551881  -2.509537
C    9.233523   5.328839   0.163442
H    1.517393  -2.361005  -1.147801
H    1.515371   0.601235  -2.702516
H    1.284995   0.456558   0.640787
H    5.829673  -1.298488  -2.471970
H    5.626584  -1.365403   0.878798
H    4.955448   3.205731   0.693189
H    9.167080   1.493016   1.431827
H    9.612243   2.437596  -4.287448
H   10.015133  -0.497244  -2.719977
H   12.204890   1.959778  -2.229745
H    8.728588   6.484255  -1.479769
H   11.252828   5.595932   0.530635
H    8.201902   6.061070   1.802893

