%chk=mol_4915.chk
# wB97XD/Def2SVP opt pop=full gfinput

C 4 H 9 N 1 O 2

1 2
C    0.932485  -0.983621   0.661877
C    3.765695  -0.807367   0.230622
O    4.329401  -2.096519  -2.078699
C    4.654906   1.947193   0.086020
O    7.366776   2.053603   0.061700
N    8.261694   1.377554  -2.346189
C   10.683907   1.659312  -2.380526
H    0.381044  -0.074247   2.435120
H    0.332535  -2.964168   0.721932
H   -0.109302  -0.095620  -0.892121
H    4.780119  -1.798301   1.738491
H    5.952486  -1.391330  -2.638889
H    4.029350   2.994347   1.757162
H    3.918498   2.907041  -1.596838
H   11.753360   1.223276  -4.111780
H   11.773429   2.326196  -0.734102

