%chk=mol_2153.chk
# wB97XD/Def2SVP opt pop=full gfinput

C 7 H 12

1 2
C    4.557830  -0.970771   2.777614
C    4.203205   0.192185   0.169943
C    5.518567   2.726213  -0.097302
C    4.147004   4.833182  -0.461301
C    8.299016   2.763819   0.134114
C    9.905585   1.010002  -1.431486
C    9.849422   3.775673  -2.036822
H    3.520635  -2.756959   2.904415
H    3.848371   0.287049   4.260652
H    6.550622  -1.371582   3.166935
H    2.170407   0.390039  -0.184248
H    4.905067  -1.114712  -1.273468
H    2.101187   4.787432  -0.599119
H    5.052428   6.667767  -0.623647
H    8.968225   3.191407   2.027336
H    9.018642  -0.263957  -2.767750
H   11.601539   0.249992  -0.566332
H   11.504332   4.894485  -1.586803
H    8.900289   4.348033  -3.759591

