%chk=mol_0283.chk
# wB97XD/Def2SVP opt pop=full gfinput

C 4 H 10 N 2

1 2
C    1.573707   0.554861  -0.691753
C    4.246422   0.078102   0.168828
C    4.685841   0.293172   2.991077
N    3.988513  -2.065735   4.232609
C    5.826158  -1.784733  -1.327967
N    6.264045   0.923755  -1.558986
H    1.388495   0.449774  -2.751271
H    0.949323   2.437312  -0.098757
H    0.285613  -0.843196   0.125591
H    3.582788   1.861059   3.776013
H    6.678424   0.686349   3.402981
H    2.103813  -2.375159   3.997942
H    4.263109  -1.880712   6.128665
H    4.986761  -2.705899  -2.950826
H    7.254243  -2.878091  -0.351395
H    7.857708   1.426271  -0.594659

