%chk=mol_0501.chk
# wB97XD/Def2SVP opt pop=full gfinput

C 4 H 10 N 2

1 2
C    1.761811   0.249274  -1.039519
N    4.161479   0.487946   0.230093
C    5.657594   2.602984   0.146548
C    4.464912   5.184539  -0.168601
N    8.069981   2.222847   0.293645
C    9.768902   4.379818   0.154466
H    1.060665  -1.686316  -0.841873
H    1.952900   0.663105  -3.056538
H    0.347899   1.511705  -0.216393
H    5.246806  -1.096532   0.177653
H    2.473784   5.159633   0.375186
H    4.613823   5.760131  -2.147730
H    5.411552   6.580555   1.022304
H   11.712428   3.691164  -0.006671
H    9.660922   5.528167   1.870923
H    9.401992   5.555625  -1.507642

