%chk=mol_1801.chk
# wB97XD/Def2SVP opt pop=full gfinput

C 5 H 10 N 2

1 2
C    1.049800  -0.270401   0.090990
N    3.760196  -0.436376   0.567900
C    4.619133  -2.966038   1.287470
C    5.441372   1.102504  -0.725504
N    4.989841   1.936195  -2.989641
C    7.913077   1.932188   0.350941
C    8.421489   1.910494   2.828466
H    0.462303   1.701736  -0.130278
H   -0.018500  -1.046833   1.684861
H    0.533772  -1.319860  -1.616132
H    3.153481  -3.988021   2.333906
H    6.286004  -2.889486   2.506363
H    5.091886  -4.068902  -0.399809
H    3.299745   1.245008  -3.600571
H    9.262001   2.677912  -1.000931
H    7.046845   1.278060   4.209857
H   10.225800   2.592421   3.520560

