%chk=mol_3857.chk
# wB97XD/Def2SVP opt pop=full gfinput

C 4 H 4 N 2 O 1

1 2
C    4.423792  -0.087286   1.104054
N    3.622208   0.718285  -1.414309
C    5.440427   2.513752  -1.400004
C    5.605287   5.066375  -1.568114
O    6.871611   5.889993   0.552726
N    7.181489   3.842758   2.244900
C    6.420439   1.852763   0.912454
H    5.080680  -2.048010   1.117660
H    3.018686   0.207284   2.590115
H    3.862562  -0.715318  -2.679424
H    4.776320   6.532859  -2.715423

