%chk=mol_1910.chk
# wB97XD/Def2SVP opt pop=full gfinput

C 6 H 9 N 1

1 2
N    1.934758   0.020863   0.230811
C    4.660953   0.036623  -0.137893
C    5.867543   1.996968   1.652452
C    7.877909  -0.040081   2.317485
C    5.873439  -2.034763   1.518811
C   10.157750   0.012340   0.788318
C   12.028258   0.053366  -0.498831
H    1.054240  -1.451820  -0.646891
H    1.064086   1.610935  -0.422883
H    5.308524   0.106108  -2.100582
H    4.720498   2.552737   3.290221
H    6.564361   3.718641   0.742133
H    8.322184  -0.105560   4.340928
H    6.576171  -3.690503   0.497489
H    4.728851  -2.701061   3.116593
H   13.678669   0.088250  -1.649750

