%chk=mol_6274.chk
# wB97XD/Def2SVP opt pop=full gfinput

C 4 H 4 N 2 O 1

1 2
O    3.784970  -1.529696   0.760993
C    4.588161   0.404118  -0.218981
N    5.739873   2.366693   1.062158
C    7.757987   3.781229  -0.053989
C    5.232009   4.944865   0.385655
C    4.919486   6.743545   2.385647
N    4.680096   8.247861   3.964816
H    4.442255   0.733233  -2.273586
H    8.295256   3.232244  -1.948572
H    9.296225   4.142355   1.245953
H    3.993483   5.191172  -1.227150

