%chk=mol_2495.chk
# wB97XD/Def2SVP opt pop=full gfinput

C 5 H 8 O 2

1 2
C    1.846584  -0.025795   0.620246
C    4.596702  -0.149591  -0.211196
C    5.400422   2.294222  -1.540372
O    7.986361   2.174565  -2.362006
C    8.525461  -0.127160  -3.429248
C    7.055293  -2.172373  -3.247079
O    4.863286  -2.294997  -1.867446
H    1.508984   1.578998   1.878199
H    1.314588  -1.763946   1.609083
H    0.588536   0.133358  -1.015992
H    5.803802  -0.485433   1.443807
H    5.228683   3.911317  -0.260480
H    4.220306   2.667972  -3.203974
H   10.298630  -0.082354  -4.444881
H    7.453685  -3.950227  -4.173800

