%chk=mol_4200.chk
# wB97XD/Def2SVP opt pop=full gfinput

C 4 H 6 N 2 O 1

1 2
C    1.769653  -0.274369  -0.009430
C    4.518052   0.129843  -0.003666
C    6.100508   2.187301   0.009713
N    5.497743   4.629980   0.025209
N    8.560630   1.461836   0.008712
C    8.409111  -1.017788  -0.000208
O    6.021763  -1.981246  -0.008844
H    0.747406   1.521362   0.008957
H    1.194156  -1.356786   1.655003
H    1.196518  -1.321145  -1.697239
H    6.888713   5.944077  -0.033391
H    3.709532   5.296298  -0.057240
H    9.938088  -2.372438   0.001134

