%chk=mol_2774.chk
# wB97XD/Def2SVP opt pop=full gfinput

C 6 H 10 O 1

1 2
C    5.129491  -2.108065   2.107612
C    4.558662  -0.243397   0.041479
C    2.887823  -0.762675  -1.798792
C    5.903467   2.166231   0.117163
C    4.643964   4.371598   0.205319
C    8.753003   2.078359   0.021467
O    9.748775   1.685201   2.486653
H    7.079405  -2.789463   1.976597
H    3.888754  -3.763390   2.011349
H    4.852836  -1.240511   3.967915
H    1.890123  -2.554381  -1.862514
H    2.485651   0.571888  -3.304451
H    2.592383   4.437606   0.268757
H    5.630193   6.169276   0.237539
H    9.537127   3.851035  -0.706115
H    9.422893   0.561305  -1.216776
H    8.796883   2.778238   3.617182

