%chk=mol_5434.chk
# wB97XD/Def2SVP opt pop=full gfinput

C 4 H 7 N 1 O 2

1 2
C    5.168174  -1.768066  -0.120092
O    7.628144  -0.683042  -0.156072
N    7.384332   1.954090  -0.031143
C    9.613037   2.941359  -0.086682
C    9.801405   5.709505   0.013549
C    9.726572   7.063797   2.513487
O   12.060308   6.626419   1.212751
H    5.358753  -3.821971  -0.230641
H    4.072152  -1.111726  -1.746239
H    4.196987  -1.281537   1.639413
H   11.369707   1.825230  -0.214730
H    9.144838   6.712515  -1.644232
H    9.357924   5.976240   4.207759
H    9.005735   8.977862   2.552926

