%chk=mol_1806.chk
# wB97XD/Def2SVP opt pop=full gfinput

C 5 H 10 N 2

1 2
C    2.773721  -0.781496  -0.828588
N    5.452484  -0.148173  -0.785786
C    5.868186   2.333283   0.436413
C    8.710900   3.101381   0.488834
N   10.290863   0.982242   1.333750
C    9.566984   3.902946  -2.038334
C   10.275122   4.549100  -4.098702
H    2.511899  -2.599167  -1.779631
H    1.671085   0.637253  -1.854143
H    2.022650  -0.968126   1.089786
H    6.106593  -0.042235  -2.600565
H    5.197559   2.215987   2.395417
H    4.765322   3.801260  -0.527763
H    8.949195   4.678339   1.810339
H    9.764763  -0.530522   0.245608
H    9.704027   0.474416   3.095957
H   10.929628   5.110594  -5.916770

