%chk=mol_5382.chk
# wB97XD/Def2SVP opt pop=full gfinput

C 7 H 14

1 2
C    2.206973   0.536531   0.211668
C    5.051125  -0.052327  -0.002816
C    5.803311  -1.742252   2.239892
C    5.518359  -1.533059  -2.466168
C    6.488072   2.437558  -0.149685
C    7.347142   3.884389   2.154099
C    9.267935   2.659544   0.451304
H    1.552164   1.673371  -1.391103
H    1.800002   1.610859   1.934891
H    1.077503  -1.198049   0.259081
H    5.440975  -0.817609   4.054540
H    7.805155  -2.258695   2.179686
H    4.718760  -3.507710   2.231294
H    4.946282  -0.431311  -4.124138
H    4.458355  -3.311329  -2.491755
H    7.526949  -1.984987  -2.691008
H    5.821396   3.572697  -1.730914
H    7.082146   3.093198   4.021658
H    7.191863   5.928033   2.106270
H   10.404587   3.879192  -0.741718
H   10.290353   1.038197   1.165961

