%chk=mol_2348.chk
# wB97XD/Def2SVP opt pop=full gfinput

C 6 H 10 O 1

1 2
C    1.826760   0.211158   0.042122
C    4.622818  -0.015628   0.005461
C    6.057782  -2.086012  -0.147436
C    5.247959  -4.766097  -0.326998
C    8.770011  -1.365289  -0.101403
O    8.815931   1.351230  -0.045712
C    6.264763   2.257883   0.166957
H    0.898244  -1.631457  -0.088836
H    1.178906   1.360962  -1.550369
H    1.202376   1.111802   1.796052
H    6.883139  -6.027319  -0.465269
H    4.079919  -5.070437  -2.007437
H    4.169492  -5.320014   1.350361
H    9.728348  -2.076545   1.586444
H    9.775610  -2.003563  -1.790591
H    5.908985   3.586795  -1.377402
H    6.057650   3.231073   1.979167

