%chk=mol_6694.chk
# wB97XD/Def2SVP opt pop=full gfinput

C 4 H 3 N 1 O 1 S 1

1 2
O    4.647800  -2.199868   0.145471
C    3.929478   0.007446   0.002419
C    5.497912   2.244654  -0.004006
N    4.546303   4.542165  -0.165200
C    6.492740   6.283056  -0.126404
C    8.891709   5.287283   0.063344
S    8.722579   2.051713   0.199291
H    1.888460   0.411998  -0.139008
H    6.054532   8.280137  -0.243057
H   10.681110   6.269204   0.126952

