%chk=mol_2790.chk
# wB97XD/Def2SVP opt pop=full gfinput

C 6 H 10 O 1

1 2
C    1.637807   0.222137  -0.333026
C    4.424643  -0.252637   0.020352
C    5.094059  -2.982611   0.420200
C    6.051035   1.705346   0.037870
C    8.853745   1.651186   0.281418
C   10.359724  -0.382140  -1.016673
O    9.899425   3.368777   1.450478
H    1.211598   2.224226  -0.638349
H    0.584889  -0.396465   1.337246
H    0.940384  -0.823429  -1.976824
H    3.727012  -3.877642   1.691777
H    6.943780  -3.234587   1.299300
H    5.063294  -3.999398  -1.380218
H    5.340706   3.630599  -0.103274
H    9.260962  -1.302891  -2.502791
H   10.990590  -1.775757   0.369007
H   12.007017   0.483600  -1.917996

