%chk=mol_3952.chk
# wB97XD/Def2SVP opt pop=full gfinput

C 4 H 8 N 2 O 1

1 2
C    1.675601   0.270949   0.155090
C    4.522190  -0.009581   0.195795
C    6.041852   2.038882   1.630626
C    7.242300  -0.220550   3.015323
O    9.139056  -0.636403   4.226675
N    5.336114  -1.796317   2.192007
N    5.904260  -4.315190   1.598406
H    0.784406  -1.434000  -0.608737
H    1.122176   1.861116  -1.045926
H    0.901758   0.602955   2.046498
H    5.315762  -0.479707  -1.663375
H    4.966427   3.289560   2.874840
H    7.352981   3.130785   0.468652
H    4.368121  -5.381657   2.073937
H    7.308875  -4.882089   2.810098

