%chk=mol_3772.chk
# wB97XD/Def2SVP opt pop=full gfinput

C 5 H 8 O 2

1 2
O    1.768330  -0.030311   0.106486
C    4.449606  -0.222685   0.116048
C    5.566037   2.427410   0.105107
C    8.449589   2.427259   0.023829
O    9.306807   4.958925  -0.315282
C    9.572616   1.411607   2.355430
C   10.494934   0.590917   4.258120
H    1.101068  -1.743159   0.132734
H    5.034420  -1.276982  -1.564863
H    5.012782  -1.276831   1.803120
H    4.877856   3.484523   1.754119
H    4.825359   3.477002  -1.525028
H    9.109160   1.341970  -1.610368
H    8.895583   5.873250   1.225204
H   11.325998  -0.131808   5.945891

