%chk=mol_0412.chk
# wB97XD/Def2SVP opt pop=full gfinput

C 4 H 10 N 2

1 2
C    3.378887  -2.038561   2.362309
C    3.989609  -0.620265  -0.065555
C    5.931208   1.480884   0.339225
N    8.359430   0.426417   1.036137
C   10.319038   1.769842   2.016130
N   10.297421   3.993690   2.979682
H    1.919036  -3.460429   2.008174
H    2.677610  -0.747613   3.816944
H    5.044019  -3.012413   3.105330
H    2.244466   0.216260  -0.804286
H    4.672877  -1.961573  -1.489822
H    5.236053   2.773778   1.801797
H    6.141856   2.566437  -1.412476
H    8.863496  -1.136387   0.039552
H   12.114637   0.715507   1.949026
H    8.509512   4.713979   2.951223

