%chk=mol_6455.chk
# wB97XD/Def2SVP opt pop=full gfinput

C 5 H 6 O 1 S 1

1 2
C    1.768368   0.019294  -0.017253
C    4.585647   0.039136  -0.003118
C    6.044176   2.210658   0.007370
S    9.221958   1.603376   0.022620
C    8.707745  -1.584970   0.015042
C    6.175776  -2.142628   0.001096
O    5.397965  -4.563443  -0.007200
H    0.997038   1.938481  -0.001625
H    1.048269  -0.972793   1.648484
H    1.065446  -0.939251  -1.709711
H    5.398116   4.149555   0.006954
H   10.275744  -2.891602   0.020957
H    3.565252  -4.651202  -0.017763

