%chk=mol_6070.chk
# wB97XD/Def2SVP opt pop=full gfinput

C 4 H 5 N 1 O 2

1 2
O    2.780807   0.163707   2.089716
C    4.423811   0.065422   0.478592
N    5.534498  -2.099939  -0.439021
C    7.432652  -1.571969  -2.263306
C    9.709809   0.003761  -1.650128
C    7.348918   1.272466  -2.569385
O    5.502335   2.120197  -0.705926
H    5.068586  -3.814412   0.250842
H    7.410504  -2.722623  -3.954573
H   10.239235   0.248083   0.313657
H   11.305079  -0.082316  -2.931608
H    7.287407   2.056872  -4.456333

