%chk=mol_2110.chk
# wB97XD/Def2SVP opt pop=full gfinput

C 5 H 8 N 2

1 2
N    2.208447  -0.115387  -1.498723
C    4.383447   0.197401  -0.446618
N    5.598730   2.432323   0.005178
C    8.080525   2.579457   1.219554
C    8.650373   5.443583   1.311489
C    6.368358   6.623585   0.107922
C    4.741984   4.818461  -0.575044
H    1.793350  -2.004508  -1.578677
H    5.471985  -1.462176   0.199933
H    9.512315   1.576636   0.109642
H    8.024042   1.775889   3.127062
H   10.368020   5.894245   0.251107
H    8.883186   6.093006   3.261308
H    6.089945   8.625787  -0.161666
H    2.922821   5.036536  -1.486742

