%chk=mol_6298.chk
# wB97XD/Def2SVP opt pop=full gfinput

C 5 H 7 N 1 O 1

1 2
O    5.286169   2.062901  -4.421298
C    4.192206   2.122446  -2.388482
N    5.332921   2.172032  -0.065044
C    8.060513   2.312609   0.201237
C    9.083044   5.004751  -0.074587
C    8.211673   6.655427   1.992395
C    7.500342   8.010265   3.670340
H    2.114131   2.147901  -2.233581
H    4.248709   2.474389   1.481318
H    8.920735   1.101427  -1.241796
H    8.529922   1.528618   2.059083
H    8.509814   5.809283  -1.894866
H   11.153428   4.939971  -0.060717
H    6.873633   9.223111   5.149900

