%chk=mol_0042.chk
# wB97XD/Def2SVP opt pop=full gfinput

C 3 H 6 O 1

1 2
C    1.898854  -0.231057   0.094808
O    4.560230  -0.038777  -0.262426
C    5.374098   2.412443  -0.307326
C    7.683268   3.017288  -1.113880
H    1.386398  -2.232863   0.041385
H    0.880216   0.742322  -1.421754
H    1.348943   0.530900   1.939086
H    4.048492   3.811143   0.376528
H    8.975537   1.568057  -1.772072
H    8.322033   4.963290  -1.128053

