%chk=mol_0874.chk
# wB97XD/Def2SVP opt pop=full gfinput

C 5 H 10 O 1

1 2
O    4.240564  -0.685385  -2.621409
C    4.506146   0.080937  -0.060792
C    5.956549   2.548674   0.007748
C    4.564671   4.941823  -0.965593
C    5.907529   6.417000   1.159082
C    6.093384   3.894404   2.608635
H    3.318643  -2.274947  -2.614701
H    5.532457  -1.394561   0.961549
H    2.621296   0.277506   0.767304
H    7.839907   2.339481  -0.848789
H    2.504700   4.882410  -0.758083
H    5.029449   5.527638  -2.891092
H    7.743984   7.195623   0.602048
H    4.793441   7.897865   2.069420
H    7.837431   3.605144   3.677426
H    4.475400   3.534393   3.851394

