%chk=mol_1545.chk
# wB97XD/Def2SVP opt pop=full gfinput

C 5 H 14 N 2

1 2
C    1.340477  -0.771726   0.652598
C    3.711517  -0.343571   2.241725
N    5.185692   1.897285   1.483019
C    3.697136   4.224143   1.744028
C    7.519787   2.140266   3.010901
C    9.493795   0.046884   2.526621
N   11.853477   0.537155   3.894215
H    0.514724  -2.613548   1.110441
H    1.781218  -0.760180  -1.367292
H   -0.105031   0.657114   1.025970
H    4.870164  -2.041792   2.005321
H    3.182129  -0.239542   4.243267
H    2.088847   4.236124   0.444747
H    4.832389   5.880280   1.236334
H    2.995783   4.486569   3.674308
H    7.060924   2.218916   5.032738
H    8.427574   3.945030   2.533820
H    9.904093  -0.085529   0.501892
H    8.777986  -1.791234   3.150022
H   12.634407   2.171447   3.236931
H   13.115474  -0.858351   3.475452

