%chk=mol_1897.chk
# wB97XD/Def2SVP opt pop=full gfinput

C 6 H 9 N 1

1 2
N    2.019172  -0.247176   0.013568
C    4.770292  -0.098757  -0.074531
C    6.116137  -1.132702  -2.348325
C    5.989166   1.685069  -1.929656
C    8.278437   3.153121  -1.153545
C    9.588470   3.729261  -3.530386
C   10.670320   4.207589  -5.464049
H    1.296371   1.050612   1.240000
H    1.445414  -1.971325   0.654167
H    5.705027  -0.368837   1.736980
H    5.000442  -1.908548  -3.881630
H    7.904554  -2.086654  -2.057118
H    4.737354   2.774534  -3.137229
H    9.502810   2.069099   0.114669
H    7.713484   4.888873  -0.181036
H   11.625349   4.628922  -7.188178

