%chk=mol_0080.chk
# wB97XD/Def2SVP opt pop=full gfinput

C 5 H 8

1 2
C    3.610303  -1.248788  -2.249568
C    3.908426   0.560115  -0.504670
C    6.116949   2.204441  -0.247195
C    6.633222   4.153032  -2.257164
C    5.704630   4.968619   0.294759
H    1.912535  -2.397458  -2.298134
H    5.053732  -1.609461  -3.661042
H    2.400746   0.824828   0.872846
H    7.739789   1.316856   0.640485
H    5.342388   4.312544  -3.840793
H    8.588352   4.532395  -2.736494
H    7.031199   5.904582   1.544511
H    3.789732   5.686054   0.426322

