%chk=mol_0573.chk
# wB97XD/Def2SVP opt pop=full gfinput

C 4 H 8 N 2

1 2
N    4.420051  -1.359148  -2.373855
C    4.347731   0.188443  -0.339905
N    2.714214   0.091557   1.444469
C    6.352541   2.123580  -0.206679
C    6.603591   4.097682  -2.256711
C    5.687679   4.850795   0.314847
H    5.427823  -0.745006  -3.882215
H    2.785211  -2.228082  -2.846721
H    1.494282  -1.368313   1.121949
H    8.087687   1.445225   0.654053
H    5.235996   4.128711  -3.781040
H    8.492259   4.669948  -2.804732
H    6.947408   5.915334   1.528600
H    3.707870   5.327024   0.545640

