%chk=mol_6480.chk
# wB97XD/Def2SVP opt pop=full gfinput

C 4 H 6 N 2 S 1

1 2
C    2.021875   0.324390   0.011830
C    4.820786   0.253828   0.000283
C    6.586659   2.192309  -0.001002
C    6.103589   4.952292   0.009543
N    9.088525   1.389327  -0.012718
N    9.275683  -1.099764  -0.020579
S    6.466492  -2.540226  -0.013757
H    1.184518  -1.567830  -0.003572
H    1.322770   1.337680  -1.651734
H    1.336112   1.305215   1.700205
H    4.081298   5.381241  -0.004384
H    6.957102   5.832999  -1.656610
H    6.930892   5.815141   1.698051

