%chk=mol_4198.chk
# wB97XD/Def2SVP opt pop=full gfinput

C 5 H 11 N 1 O 1

1 2
C    1.799303  -0.038267   0.296781
C    4.642982  -0.016932  -0.134832
O    5.105416   0.011471  -2.830337
C    6.087564   2.007929   1.420602
C    7.864681  -0.060415   2.427882
N   10.211645  -0.028119   0.959168
C    6.087110  -2.091190   1.357409
H    1.332144  -0.066575   2.312382
H    0.936321  -1.705478  -0.574666
H    0.919994   1.642134  -0.530937
H    6.749063   0.801206  -3.034749
H    4.950686   2.894550   2.909933
H    6.961165   3.529857   0.322463
H    8.137463  -0.065007   4.474531
H   10.048581  -0.591919  -0.874773
H   11.570718  -1.178698   1.702775
H    6.952681  -3.575834   0.203637
H    4.952557  -3.024544   2.819245

