%chk=mol_0633.chk
# wB97XD/Def2SVP opt pop=full gfinput

C 5 H 6 O 1

1 2
C    1.907206   0.011187  -0.232455
C    4.419503   0.040346  -0.005310
C    6.204595  -2.169613  -0.009883
O    8.720444  -1.157684   0.392987
C    8.345220   1.422775   0.530011
C    5.975994   2.219691   0.317890
H    0.886263  -1.753080  -0.459808
H    0.805042   1.740608  -0.191486
H    6.193275  -3.156202  -1.829160
H    5.787513  -3.501285   1.517790
H   10.036827   2.520932   0.806989
H    5.340876   4.153410   0.388074

