%chk=mol_5742.chk
# wB97XD/Def2SVP opt pop=full gfinput

C 5 H 5 N 1 O 1

1 2
N    1.667097  -0.041612   0.400055
C    4.234252  -0.007389   0.046601
C    5.738890   2.021950   0.154258
C    8.516448   1.935987  -0.228430
O    9.736398   3.905969  -0.133698
C    9.852768  -0.403627  -0.724975
C   10.978439  -2.331998  -1.135933
H    0.745667  -1.432091  -0.559094
H    0.798712   1.668685   0.256644
H    4.985097  -1.886249  -0.328718
H    4.992619   3.889491   0.548531
H   11.997739  -4.030597  -1.498080

