%chk=mol_3410.chk
# wB97XD/Def2SVP opt pop=full gfinput

C 7 H 14

1 2
C    1.765042  -0.254244  -0.124268
C    4.602749   0.234685  -0.024699
C    5.480300   2.973371  -0.136835
C    3.885693   4.946131  -0.320781
C    8.352967   3.294208  -0.001493
C    9.530380   3.040720  -2.631633
C    9.246184   5.755104   1.240908
H    1.395506  -2.287797  -0.019048
H    0.940838   0.442631  -1.890066
H    0.788564   0.642904   1.464651
H    5.477938  -0.801735  -1.590601
H    5.324492  -0.603465   1.728929
H    1.850665   4.713714  -0.409560
H    4.551557   6.882023  -0.415759
H    9.099220   1.761225   1.181532
H    8.857883   4.528672  -3.907009
H    9.075901   1.213922  -3.492781
H   11.593848   3.180749  -2.527414
H    8.821733   7.415021   0.078386
H   11.297766   5.713549   1.524877
H    8.366441   6.014545   3.098036

