%chk=mol_5312.chk
# wB97XD/Def2SVP opt pop=full gfinput

C 5 H 11 N 1 O 1

1 2
C    2.790748   2.925825   2.847987
O    5.466071   2.680803   2.850822
C    6.527983   3.330718   0.457900
C    9.369167   3.041949   0.635477
C   10.904665   3.997716  -1.648125
N   12.805502   5.008870   0.140123
C   10.814128   5.094947   2.112752
H    2.083007   2.358321   4.704398
H    1.949782   1.693686   1.415462
H    2.247073   4.891273   2.505852
H    5.999105   5.273016  -0.032125
H    5.777214   2.053868  -0.989839
H    9.921515   1.117754   1.195346
H    9.984576   5.471513  -2.777501
H   11.610439   2.533027  -2.924729
H   14.202312   3.743264   0.551819
H   11.448093   4.556092   4.005180
H    9.866355   6.933916   2.230085

