%chk=mol_7086.chk
# wB97XD/Def2SVP opt pop=full gfinput

C 7 H 10

1 2
C    1.964314  -0.282949   0.081995
C    4.750129   0.395350  -0.133490
C    5.413801   2.802577   1.263773
C    7.253808   2.340086   2.950637
C    8.108796  -0.301903   2.977793
C    6.342374  -2.369320   3.782230
C    6.455588  -1.614676   1.030978
H    1.585839  -2.104777  -0.825281
H    0.786296   1.149842  -0.837281
H    1.350833  -0.429497   2.054227
H    5.249130   0.627219  -2.131309
H    4.536722   4.614163   0.929953
H    8.061780   3.757418   4.185158
H   10.124434  -0.645644   2.931154
H    7.164708  -4.170890   4.309067
H    4.691774  -1.872246   4.888419
H    7.317341  -2.878431  -0.321990

