%chk=mol_3166.chk
# wB97XD/Def2SVP opt pop=full gfinput

C 5 H 8 O 2

1 2
C    8.424702   6.993366   2.705067
C   10.806078   6.895611   1.863138
O   11.777756   5.580324  -0.132564
C   10.070917   4.046489  -1.558060
C   11.503727   2.908780  -3.705129
C   12.942243   0.474945  -3.400128
O   10.517158   0.558187  -4.617092
H    7.965460   8.152127   4.335051
H    6.882307   5.964240   1.838609
H   12.313172   7.951174   2.769450
H    8.538822   5.210126  -2.327802
H    9.271677   2.570632  -0.340264
H   12.154058   4.284860  -5.067187
H   13.049541  -0.381744  -1.545758
H   14.582620   0.168828  -4.582870

