%chk=mol_5367.chk
# wB97XD/Def2SVP opt pop=full gfinput

C 4 H 7 N 1 O 2

1 2
C    3.427207  -0.765282  -1.790780
O    5.957607   0.104256  -1.533381
C    6.304221   2.544743  -0.664749
C    4.481920   4.195797  -0.026891
C    8.995909   3.442231  -0.408408
N   10.742601   1.674845  -1.081169
O    9.611790   5.546611   0.328434
H    3.492649  -2.708563  -2.493645
H    2.387631   0.373901  -3.170223
H    2.459479  -0.783896   0.037851
H    2.487012   3.763824  -0.132753
H    4.959321   6.080817   0.639068
H   10.196830  -0.054027  -1.685239
H   12.593664   2.118553  -0.966784

