%chk=mol_0721.chk
# wB97XD/Def2SVP opt pop=full gfinput

C 5 H 10 O 1

1 2
C    3.159074  -1.308106  -1.739020
C    5.603189  -0.938910  -0.272763
C    5.947516   1.767499   0.511492
C    7.912850   3.184075  -0.233268
O    8.463479   5.640228   0.342267
C    6.750631   6.937430   1.958248
H    2.942341  -3.294227  -2.275211
H    3.145941  -0.172626  -3.469121
H    1.514786  -0.771594  -0.602482
H    7.195340  -1.586104  -1.429918
H    5.571404  -2.122880   1.426441
H    4.505353   2.530135   1.755083
H    9.380940   2.457003  -1.468412
H    7.464664   8.858318   2.231974
H    6.647130   6.025581   3.812749
H    4.875115   7.070656   1.094548

