%chk=mol_6282.chk
# wB97XD/Def2SVP opt pop=full gfinput

C 4 H 8 N 2 O 1

1 2
O    2.928036  -0.227995   2.013409
C    4.579959   0.125610   0.429894
N    5.497025   2.449633  -0.301846
C    4.834826   4.794538   0.949039
C    6.275894   6.751462  -0.553104
C    8.562613   5.278175  -1.489312
N    7.623193   2.685905  -1.905543
H    5.478052  -1.446453  -0.603522
H    5.473365   4.689318   2.915677
H    2.787970   5.080321   0.916649
H    5.137976   7.379494  -2.168253
H    6.780564   8.409186   0.572285
H    9.368337   6.087318  -3.212761
H   10.038905   5.236166  -0.037303
H    6.970576   2.562847  -3.723403

