%chk=mol_3695.chk
# wB97XD/Def2SVP opt pop=full gfinput

C 6 H 10 O 1

1 2
O    5.370035  -1.008774  -2.268522
C    4.228395   0.176519  -0.145830
C    5.086576   2.895344  -0.020674
C    3.400430   4.786128  -0.229413
C    7.834956   3.322441   0.235309
C    8.814420   5.123860   2.216649
C    9.208711   2.335550   2.527490
H    4.837378  -2.764254  -2.235244
H    4.780610  -0.840664   1.569266
H    2.174357   0.023414  -0.349958
H    1.396092   4.429990  -0.466970
H    4.004670   6.746304  -0.200216
H    8.845373   3.251009  -1.551673
H    7.491989   6.038639   3.484371
H   10.435937   6.276574   1.732123
H   11.098248   1.593209   2.248812
H    8.153998   1.389780   4.005369

