%chk=mol_6940.chk
# wB97XD/Def2SVP opt pop=full gfinput

C 5 H 10 N 2

1 2
C    0.896051   2.281447   0.403740
C    3.295229   1.521192  -0.981486
C    5.603151   2.535956   0.299559
C    7.843138   3.353791  -1.217418
N    6.216764   5.233086   0.032825
C    7.183095   6.415828   2.126849
N    6.741730   8.723543   2.764178
H   -0.758593   1.443996  -0.510245
H    0.662614   4.335806   0.404420
H    0.941802   1.648257   2.372476
H    3.184491   2.178703  -2.944817
H    3.424656  -0.545337  -1.043866
H    5.903788   1.737093   2.160921
H    7.710139   3.446161  -3.254675
H    9.720430   3.156863  -0.433012
H    8.429917   5.238756   3.316167
H    5.553073   9.462652   1.420356

