%chk=mol_6265.chk
# wB97XD/Def2SVP opt pop=full gfinput

C 4 H 7 N 1 O 2

1 2
O    3.742848   0.248877   1.841255
C    5.142153  -0.383577  -0.372276
C    3.376241  -1.141829  -2.511975
O    1.061950  -1.175788  -2.271621
C    6.720773   1.856013  -1.089125
C    9.488503   1.926443  -0.415437
N    8.676734   1.623369  -3.036601
H    1.960345   0.001909   1.406145
H    6.307358  -2.035159   0.073548
H    4.299807  -1.732992  -4.286730
H    5.663585   3.609812  -1.066750
H   10.346383   0.282495   0.452911
H   10.324953   3.724480   0.094864
H    8.893769   3.286971  -3.998131

