%chk=mol_7148.chk
# wB97XD/Def2SVP opt pop=full gfinput

C 6 H 7 N 1

1 2
C    1.889726   0.000000   0.000000
C    4.618491   0.000000   0.000000
C    6.867567   0.000000   0.000000
C    9.596332   0.000000   0.000000
C   10.617918  -1.441804  -2.280994
C   10.507217   2.572238   0.000000
N   11.233269   4.622572   0.000000
H    1.145212   1.929184   0.022015
H    1.145061  -0.983659   1.659633
H    1.145212  -0.945430  -1.681781
H   10.273439  -0.955597   1.710127
H   10.009728  -0.584171  -4.068580
H    9.957723  -3.405740  -2.275854
H   12.689643  -1.469035  -2.276421

