%chk=mol_1618.chk
# wB97XD/Def2SVP opt pop=full gfinput

C 6 H 9 N 1

1 2
C    1.799775  -0.008390  -1.024931
N    3.991139  -0.036132   0.629184
C    6.182296   1.408753  -0.165181
C    6.797968   2.250834  -2.832057
C    7.166805  -0.148438  -4.326755
C    6.750121  -2.151132  -2.822230
C    6.157087  -1.504902  -0.182642
H    0.682002   1.692269  -0.647401
H    0.597494  -1.635879  -0.589595
H    2.173336  -0.052799  -3.056632
H    7.251749   2.367921   1.288264
H    8.544396   3.360670  -2.846268
H    5.275473   3.402149  -3.628539
H    7.636724  -0.219605  -6.310003
H    6.862049  -4.095301  -3.448845
H    7.226313  -2.472688   1.271105

