%chk=mol_5663.chk
# wB97XD/Def2SVP opt pop=full gfinput

C 4 H 10 N 2 O 1

1 2
N    3.616445  -0.137175  -2.486880
C    4.287165   0.285292   0.168715
C    6.595900   2.041698   0.388282
N    6.309096   4.438494  -1.069207
C    5.413310   5.713058   1.252114
C    6.804451   3.668998   2.820567
O    9.339310   4.298995   3.636192
H    2.179591  -1.417729  -2.578966
H    5.109971  -0.952422  -3.394383
H    4.701563  -1.524461   1.084117
H    2.641629   1.097591   1.127656
H    8.336659   1.026953  -0.101346
H    4.978748   4.262882  -2.466187
H    6.108464   7.646153   1.481413
H    3.355247   5.715061   1.482320
H    5.719351   2.961862   4.434658
H   10.125114   4.960229   2.103001

