%chk=mol_2019.chk
# wB97XD/Def2SVP opt pop=full gfinput

C 5 H 8 N 2

1 2
N    6.107708  -1.713830  -4.560533
C    6.382418  -0.934810  -2.529588
C    6.748250   0.062285   0.033826
C    8.202432   2.544648  -0.063400
C    6.766089   4.912305  -1.008604
C    8.123007   6.281355   1.162635
N    8.344634   3.807647   2.454849
H    7.800261  -1.323224   1.159612
H    4.905993   0.313317   0.949493
H   10.076587   2.333982  -0.937361
H    4.706552   4.831954  -0.792211
H    7.227220   5.557533  -2.915413
H    9.946271   7.111399   0.634759
H    7.003023   7.691885   2.173676
H   10.003587   3.559469   3.404417

