%chk=mol_4982.chk
# wB97XD/Def2SVP opt pop=full gfinput

C 4 H 8 N 2 O 1

1 2
C    2.180272  -0.027439   0.627219
N    4.892085  -0.111683   0.666506
C    6.543612   1.958909  -0.213974
C    8.403593  -0.090556  -1.169249
N    8.925138   0.296611  -3.884275
C    6.188210  -1.941845  -0.615673
O    5.599315  -4.058319  -1.244725
H    1.424721  -1.886967   1.119228
H    1.540391   0.460451  -1.278192
H    1.526615   1.385358   1.982001
H    7.249575   3.118993   1.344880
H    5.634578   3.162986  -1.630815
H   10.079062  -0.387734   0.004044
H    7.314525   0.495770  -4.931921
H    9.787213  -1.248636  -4.660273

