%chk=mol_4330.chk
# wB97XD/Def2SVP opt pop=full gfinput

C 5 H 9 N 1 O 1

1 2
C    2.082951  -0.124231  -0.206490
C    4.667699   1.081812  -0.070373
C    6.941323  -0.644340  -0.440779
C    7.657983  -1.795391   2.049484
C    7.539913  -4.270970   2.573221
N    4.781253   3.485543   0.442990
O    7.275445   4.343687   0.581318
H    0.606848   1.320446  -0.209325
H    1.817709  -1.357258   1.428009
H    1.930506  -1.241304  -1.935968
H    8.542583   0.402871  -1.222350
H    6.441982  -2.097842  -1.828329
H    8.327456  -0.494598   3.496201
H    6.896121  -5.641947   1.190962
H    8.099272  -4.975479   4.417102
H    7.055160   6.129894   0.980484

