%chk=mol_5238.chk
# wB97XD/Def2SVP opt pop=full gfinput

C 4 H 10 N 2 O 1

1 2
C    7.395443  -2.531345  -1.244158
N    8.823812  -0.467443  -0.093768
N    7.877078   1.873437  -0.508223
C    9.567721   3.630995  -0.243057
C    8.877423   6.382040  -0.672157
C    9.437367   7.112759  -3.389148
O    6.284435   6.821874  -0.146756
H    8.313340  -4.334824  -0.821936
H    7.332515  -2.314064  -3.299311
H    5.460874  -2.593574  -0.514856
H    8.918733  -0.816796   1.808014
H   11.567845   3.220339   0.197968
H   10.004305   7.533318   0.622211
H    8.228662   6.063432  -4.705380
H   11.410809   6.734625  -3.885315
H    9.047744   9.123371  -3.693659
H    5.400327   5.294427  -0.699520

