%chk=mol_0133.chk
# wB97XD/Def2SVP opt pop=full gfinput

C 5 H 4

1 2
C    1.889726   0.000000   0.000000
C    4.618491   0.000000   0.000000
C    6.867567   0.000000   0.000000
C    9.598977  -0.000000  -0.000000
C   12.049139  -0.000000  -0.000000
H    0.892744   2.325629   0.039136
H    0.916423  -1.160216   2.025049
H    0.920127  -1.134951  -2.063279
H   14.194281  -0.000000  -0.000000

