%chk=mol_1600.chk
# wB97XD/Def2SVP opt pop=full gfinput

C 5 H 6 N 2

1 2
C    1.550218   1.007281  -0.110946
C    4.307234   0.485093   0.192450
N    5.403823  -1.673409   0.545243
N    3.709154  -3.686629   0.638293
C    4.899644  -5.784603   0.994733
C    6.106121   2.526073   0.101308
C    7.602274   4.233138   0.023886
H    1.203812   3.029495  -0.356931
H    0.531618   0.356554   1.565600
H    0.833464   0.001984  -1.768462
H    3.838771  -7.569468   1.116016
H    6.972579  -5.899517   1.190490
H    8.941769   5.733391  -0.042254

