%chk=mol_3729.chk
# wB97XD/Def2SVP opt pop=full gfinput

C 6 H 8 O 1

1 2
O    1.914236  -0.016138  -0.362657
C    4.573137   0.000000   0.000000
C    5.484023   2.572238   0.000000
C    6.234774   4.692322   0.000000
C    7.145659   7.264561   0.000000
C    4.968714   9.072745  -0.190428
C    4.421884  10.854946   1.521400
H    1.386889  -1.771977  -0.303717
H    5.443224  -1.095550  -1.522722
H    4.991315  -0.933563   1.797243
H    8.406806   7.579144  -1.612258
H    8.258519   7.630299   1.708312
H    3.772725   8.899041  -1.857034
H    5.546629  11.105448   3.218336
H    2.808775  12.098291   1.261203

