%chk=mol_3373.chk
# wB97XD/Def2SVP opt pop=full gfinput

C 6 H 10 O 1

1 2
C    3.441361  -0.335767  -1.901972
O    5.865918   0.689467  -1.361397
C    5.989902   3.109525  -0.395104
C    4.012248   4.663712  -0.035640
C    8.661087   3.942290   0.212216
C    9.765594   2.480644   2.387159
C   10.580558   3.508862   4.551953
H    3.706641  -2.273662  -2.572031
H    2.506174   0.735217  -3.404266
H    2.268389  -0.407803  -0.199102
H    2.081760   4.142261  -0.468728
H    4.286466   6.549640   0.725523
H    8.719329   5.976882   0.609796
H    9.850103   3.649137  -1.460361
H    9.909648   0.444256   2.132140
H   10.481083   5.528904   4.892803
H   11.363150   2.330694   6.038053

