%chk=mol_0980.chk
# wB97XD/Def2SVP opt pop=full gfinput

C 4 H 7 N 1 O 1

1 2
C    1.980357  -1.087462  -1.525387
C    4.067239  -0.886962  -0.105862
C    5.893262   1.263906  -0.227429
N    8.271993   0.275314  -1.100274
C   10.482009   1.553922  -0.678412
O   10.706773   3.492384   0.556071
H    0.719759  -2.693710  -1.315363
H    1.471643   0.340113  -2.909196
H    4.474172  -2.353200   1.277228
H    6.121466   2.129495   1.637486
H    5.290383   2.731561  -1.556341
H    8.265416  -1.131171  -2.393811
H   12.103374   0.622041  -1.596214

