%chk=mol_6987.chk
# wB97XD/Def2SVP opt pop=full gfinput

C 6 H 9 N 1

1 2
C    1.568435   0.793156  -0.252997
C    4.018352   0.426738   0.287333
C    6.167650   2.274985   0.079444
N    7.418385   2.513865   2.568894
C    6.937411   5.104188   3.475036
C    5.890049   6.495064   1.277984
C    5.450745   4.905521  -0.626010
H    0.211725  -0.725315  -0.004441
H    0.849111   2.593422  -0.917575
H    4.569396  -1.438781   0.959754
H    7.532902   1.541620  -1.296295
H    9.310965   2.340823   2.274266
H    8.693270   5.971043   4.140919
H    5.579908   5.073594   5.035251
H    5.498990   8.497418   1.266759
H    4.662975   5.424100  -2.437123

