%chk=mol_3252.chk
# wB97XD/Def2SVP opt pop=full gfinput

C 5 H 10 O 2

1 2
C    6.938016  -3.426754  -0.205111
C    5.218668  -1.118812  -0.129465
O    3.895576  -1.043318   2.214192
C    6.590949   1.378725  -0.608057
C    8.445091   2.106780   1.455429
C   10.102022   4.359693   0.928366
O    8.547458   0.987136   3.494519
H    7.938210  -3.555917  -2.009932
H    5.820432  -5.150864   0.049624
H    8.328496  -3.406250   1.324811
H    3.782967  -1.347734  -1.604982
H    5.173069  -0.815700   3.538361
H    5.200432   2.911293  -0.709781
H    7.609625   1.287981  -2.407681
H   11.278811   3.983637  -0.726562
H   11.329305   4.717947   2.552056
H    8.922360   6.022671   0.602917

