%chk=mol_3849.chk
# wB97XD/Def2SVP opt pop=full gfinput

C 5 H 9 N 1 O 1

1 2
C    1.427083   2.000974  -0.939912
N   -0.784954   0.757308   0.143071
C    1.513784  -0.726940  -0.144470
C    2.937164  -1.645290   2.138319
C    2.516756  -0.547057   4.794897
O    2.615154  -3.064172   5.898005
C    2.174281  -4.141259   3.414584
H    1.348905   2.443170  -2.935954
H    2.333698   3.403642   0.242830
H   -2.073899   0.325940  -1.231119
H    1.529242  -2.156612  -1.613467
H    4.961552  -1.659312   1.662279
H    0.688919   0.345518   5.170139
H    4.039176   0.662103   5.497062
H    3.421387  -5.743615   3.031291
H    0.199914  -4.717210   3.189480

