%chk=mol_5370.chk
# wB97XD/Def2SVP opt pop=full gfinput

C 6 H 11 N 1

1 2
C    1.925820   0.041857  -0.104162
C    4.737619  -0.113176  -0.096735
C    6.104099  -1.433943  -2.201682
C    6.269941   1.413761  -1.973403
C    8.678964   2.783075  -1.191529
C   11.285275   1.988823  -2.045213
N   10.064115   4.190657  -3.137172
H    1.301492   1.667400   1.012534
H    1.117206  -1.666134   0.737258
H    1.159460   0.241658  -2.015582
H    5.478184  -0.334576   1.800512
H    5.021701  -2.192026  -3.766999
H    7.749540  -2.550904  -1.716004
H    5.169044   2.460386  -3.368172
H    8.569606   3.741544   0.626331
H   11.460017   0.363319  -3.275349
H   12.869035   2.327217  -0.796633
H   10.781209   5.825402  -2.402069

