%chk=mol_5946.chk
# wB97XD/Def2SVP opt pop=full gfinput

C 5 H 7 N 1 O 1

1 2
O    2.334605  -0.384748   0.140482
C    5.028335  -0.299881  -0.103519
C    6.020781  -1.049214  -2.652892
C    6.033177   1.692288  -1.870772
C    8.454918   3.019612  -1.237808
C    9.322927   4.128541  -3.575097
N   10.014812   5.012461  -5.438159
H    1.750359   0.606791   1.574104
H    6.150605  -0.843574   1.525198
H    4.665942  -1.635086  -4.075553
H    7.791549  -2.075751  -2.725344
H    4.645230   2.939545  -2.728595
H    9.861876   1.714019  -0.463739
H    8.095417   4.477839   0.185023

