%chk=mol_6289.chk
# wB97XD/Def2SVP opt pop=full gfinput

C 4 H 5 N 1 O 2

1 2
O    2.287797  -0.197457  -1.243232
C    4.296689   0.219133  -0.164179
N    5.413196   2.514772   0.160419
O    7.747065   2.683676   1.455996
C    8.385225   5.343579   1.461911
C    6.272341   6.596391   0.101667
C    4.623385   4.831841  -0.594451
H    5.419923  -1.321996   0.675577
H   10.188988   5.598843   0.487171
H    8.533266   5.989563   3.418855
H    6.115399   8.595287  -0.253374
H    2.869171   5.057852  -1.615300

