%chk=mol_5734.chk
# wB97XD/Def2SVP opt pop=full gfinput

C 4 H 8 N 2 O 1

1 2
N    2.828637  -0.456917  -1.861513
C    4.799564  -0.210723   0.035584
C    5.636297   2.480927   0.177691
C    8.025138   3.239501  -0.166693
N    8.694479   5.730197  -0.007275
C   11.085833   6.654217  -0.346141
O   11.614011   8.900610  -0.192658
H    2.241007  -2.288969  -1.927445
H    3.572924  -0.077895  -3.597264
H    6.369549  -1.481111  -0.418518
H    4.047888  -0.779984   1.877745
H    4.165334   3.849864   0.611251
H    9.523577   1.899024  -0.593053
H    7.364622   7.055633   0.379552
H   12.508324   5.193005  -0.773144

