%chk=mol_2346.chk
# wB97XD/Def2SVP opt pop=full gfinput

C 6 H 8 O 1

1 2
C    1.998631  -0.007880   0.040194
C    4.528124  -0.021108   0.076099
C    6.154479   2.300004   0.114347
C    8.366233   1.595855  -1.571440
C    8.523647  -1.224599  -1.228492
O   10.384253  -2.473708  -1.819806
C    6.132671  -2.356073  -0.159946
H    0.919711  -1.750416  -0.076817
H    0.935717   1.746353   0.130353
H    6.810328   2.647884   2.049200
H    5.188810   3.995864  -0.566313
H    7.965630   2.002845  -3.561019
H   10.113493   2.524202  -0.981202
H    5.342539  -3.729450  -1.481885
H    6.531593  -3.186777   1.688262

