%chk=mol_6141.chk
# wB97XD/Def2SVP opt pop=full gfinput

C 4 H 8 N 2 O 1

1 2
O    4.532773  -0.670645  -2.827824
C    4.502442   0.171020  -0.272234
C    6.220789   2.445835  -0.007257
C    6.558521   3.294511   2.717710
N    6.469836   6.035634   2.453753
N    5.123501   6.754618   0.397768
C    5.008436   4.783464  -1.043752
H    3.463037  -2.164492  -2.925069
H    5.168817  -1.385661   0.916706
H    2.545707   0.615333   0.235951
H    8.019979   2.180120  -0.997983
H    8.350435   2.653308   3.522827
H    5.008719   2.646599   3.929156
H    5.922081   6.951357   4.060795
H    4.138595   4.791665  -2.931022

