%chk=mol_2547.chk
# wB97XD/Def2SVP opt pop=full gfinput

C 5 H 8 O 2

1 2
C    1.882715  -0.014853   0.007105
C    4.760314  -0.011565  -0.173930
O    5.513900  -2.194199  -1.667872
C    6.244487  -1.173482  -3.951663
C    6.429491   1.327419  -4.037967
C    5.802121   2.356054  -1.515806
O    8.076690   3.226329  -0.379381
H    1.207535   1.575767   1.141659
H    1.222558  -1.774226   0.874074
H    1.007451   0.087589  -1.865689
H    5.577734  -0.231907   1.717156
H    6.649266  -2.533537  -5.412138
H    7.023677   2.434024  -5.642911
H    4.447395   3.914643  -1.572517
H    9.287305   1.842766  -0.475153

