%chk=mol_2765.chk
# wB97XD/Def2SVP opt pop=full gfinput

C 7 H 10

1 2
C    5.276021  -2.454017   2.201531
C    4.984228  -0.785710  -0.079368
C    3.758968  -1.580548  -2.155289
C    6.063527   1.857412   0.106770
C    8.957982   1.901990   0.134227
C    9.919153   4.508962   0.277828
C   10.708889   6.632655   0.401264
H    7.267755  -2.904963   2.525468
H    4.256268  -4.242511   1.988294
H    4.530335  -1.508776   3.883992
H    2.958480  -3.466589  -2.276137
H    3.519199  -0.368837  -3.794400
H    5.320864   2.764348   1.819145
H    5.381921   3.015757  -1.475838
H    9.694768   0.988006  -1.573518
H    9.679707   0.830213   1.753080
H   11.410601   8.517147   0.512569

