%chk=mol_3459.chk
# wB97XD/Def2SVP opt pop=full gfinput

C 5 H 10 O 2

1 2
C    2.753218   0.347256   4.779892
O    3.398030   0.454725   2.176851
C    5.145120   2.420191   1.540599
C    4.103899   5.043925   2.124449
O    7.552442   2.166552   2.764102
C    8.929807   0.174724   1.857393
C   11.448679   0.166201   1.916163
H    1.711204  -1.407260   5.107041
H    1.513179   1.920888   5.286093
H    4.432863   0.338110   5.983591
H    5.424006   2.319866  -0.513476
H    4.005180   5.377877   4.164862
H    2.204271   5.282975   1.343803
H    5.350249   6.503795   1.351381
H    7.825243  -1.395657   1.147291
H   12.488784   1.764513   2.666989
H   12.512821  -1.437855   1.215623

