%chk=mol_6071.chk
# wB97XD/Def2SVP opt pop=full gfinput

C 6 H 7 N 1

1 2
C    1.865613  -0.047451   0.093749
C    4.686880  -0.021656  -0.050248
C    6.055930   2.229178  -0.172211
C    8.682215   2.149923  -0.298161
C    9.855225  -0.189785  -0.296385
N    8.597970  -2.405754  -0.178031
C    6.049278  -2.270449  -0.057145
H    1.086082   1.868410   0.029518
H    1.248334  -0.925474   1.862325
H    1.077125  -1.103770  -1.500858
H    5.095401   4.044562  -0.170038
H    9.787855   3.871935  -0.394669
H   11.899209  -0.348201  -0.392156
H    5.099029  -4.088857   0.037530

