%chk=mol_0855.chk
# wB97XD/Def2SVP opt pop=full gfinput

C 5 H 4 O 1

1 2
O    1.755858  -0.000265   0.013228
C    4.052026   0.000397   0.003515
C    5.675188   2.255709  -0.002929
C    8.036892   1.357579  -0.013077
C    8.035891  -1.356143  -0.013568
C    5.677531  -2.253498  -0.003779
H    5.002899   4.170115   0.000283
H    9.735188   2.490451  -0.020031
H    9.734489  -2.489412  -0.020957
H    5.004656  -4.168244  -0.001285

