%chk=mol_0295.chk
# wB97XD/Def2SVP opt pop=full gfinput

C 4 H 10 N 2

1 2
C    2.065508  -0.236650  -0.035716
C    4.866801   0.010790  -0.131884
N    6.250401  -0.843309  -2.361024
C    6.101416   1.891465  -1.882621
C    8.440405   3.280754  -1.104772
N   10.050603   3.545731  -3.327014
H    1.284768   1.088992   1.348206
H    1.535346  -2.151888   0.541992
H    1.176090   0.153011  -1.864857
H    5.747810  -0.390039   1.672030
H    5.059893  -1.320541  -3.803395
H    4.935813   2.977944  -3.169997
H    9.467358   2.267955   0.381914
H    7.940478   5.150883  -0.374544
H   10.357022   1.768425  -4.019825
H   11.773826   4.197497  -2.774080

