%chk=mol_0886.chk
# wB97XD/Def2SVP opt pop=full gfinput

C 4 H 6 O 2

1 2
O    4.170834  -2.093987   0.142920
C    3.688556   0.146227  -0.228506
C    5.567908   2.270260   0.019729
C    8.141790   1.404539   0.782573
C   10.266127   1.174408  -1.097950
O   10.051038   3.314145   0.554106
H    1.763398   0.733081  -0.779342
H    4.833013   3.581541   1.442031
H    5.618609   3.265711  -1.795353
H    8.162747   0.236140   2.461368
H    9.880830   1.470169  -3.085053
H   11.758141  -0.171795  -0.710386

