%chk=mol_5479.chk
# wB97XD/Def2SVP opt pop=full gfinput

C 5 H 9 N 1 O 1

1 2
N    1.434642   0.037795   0.167827
C    4.184383   0.041253   0.336863
C    5.752515  -1.591546  -1.376401
C    4.838946  -2.664646  -3.815924
O    5.113183  -0.685139  -5.658029
C    4.866309   1.677548  -4.338320
C    5.769938   1.202074  -1.712489
H    0.699501   1.672899   0.876172
H    0.681681  -1.384376   1.229002
H    4.898397   0.266810   2.254065
H    7.437452  -2.494155  -0.660951
H    5.976826  -4.279965  -4.423792
H    2.854223  -3.244282  -3.737822
H    6.023483   3.088115  -5.310036
H    2.889335   2.283942  -4.402930
H    7.466818   2.227779  -1.228832

