%chk=mol_3674.chk
# wB97XD/Def2SVP opt pop=full gfinput

C 5 H 6 O 2

1 2
O    2.049295   0.694701  -1.646972
C    3.854796   0.526837  -0.192847
C    6.043779   2.394642  -0.050153
O    6.917683   2.535483   2.524523
C    6.663023   5.099502   3.400184
C    5.647938   6.546559   1.233084
C    5.294597   5.012007  -0.726978
H    4.067768  -1.158062   1.017561
H    7.593524   1.690171  -1.222596
H    8.521493   5.788987   3.985206
H    5.375080   5.126222   5.015579
H    5.242459   8.546060   1.266665
H    4.545868   5.551240  -2.549165

