%chk=mol_3491.chk
# wB97XD/Def2SVP opt pop=full gfinput

C 6 H 8 O 1

1 2
O    3.448618   1.027217   2.268427
C    5.185768   0.140860   0.397466
C    6.386140   2.086541  -1.287338
C    7.941121   0.843876   0.740640
C    9.329086  -1.506376   0.208701
C    7.824203  -3.477947  -0.338053
C    5.093511  -2.650757  -0.259989
H    1.774302   1.264038   1.549916
H    5.873892   4.050042  -1.008641
H    6.751500   1.598330  -3.242071
H    8.464839   1.893449   2.415750
H   11.371295  -1.601940   0.279472
H    8.447907  -5.370394  -0.771518
H    4.182172  -2.941737  -2.093363
H    4.071396  -3.721589   1.185180

