%chk=mol_6658.chk
# wB97XD/Def2SVP opt pop=full gfinput

C 4 H 6 N 2 S 1

1 2
N    3.983373  -0.967294  -2.486369
C    4.678263  -0.175896   0.060660
C    5.660297   2.459120   0.035754
C    4.343309   4.705891  -0.159172
N    5.783393   6.885255  -0.090386
C    8.179434   6.265765   0.125232
S    8.832995   3.096203   0.278319
H    3.447730  -2.815805  -2.447271
H    5.545194  -0.884562  -3.613062
H    6.074373  -1.493753   0.835164
H    3.007159  -0.280549   1.277889
H    2.310436   4.857560  -0.357876
H    9.663984   7.669454   0.205073

