%chk=mol_0027.chk
# wB97XD/Def2SVP opt pop=full gfinput

C 3 H 9 N 1

1 2
C    1.870054  -0.112231   0.008466
C    4.742797  -0.022261  -0.019294
N    5.597992   2.604628   0.011565
C    8.346788   2.749835   0.017140
H    1.219591  -2.075411  -0.033221
H    1.074423   0.858125  -1.637353
H    1.108324   0.774429   1.716249
H    5.428011  -0.978009  -1.724337
H    5.469869  -1.043904   1.629605
H    4.909886   3.488586   1.579528
H    9.146010   1.870205  -1.676168
H    9.151074   1.845129   1.694858
H    8.931299   4.733537   0.021883

