%chk=mol_0804.chk
# wB97XD/Def2SVP opt pop=full gfinput

C 6 H 10

1 2
C    1.630871   0.129163  -0.032484
C    4.396202   0.100155  -0.611213
C    6.091097   1.580454   0.557790
C    8.797847   1.635086   0.075740
C    9.911897  -0.085567  -1.896132
C   10.282019   3.219470   1.392842
H    1.024666  -1.745464   0.595850
H    0.562175   0.622362  -1.732841
H    1.151221   1.491599   1.448097
H    4.975989  -1.221727  -2.070837
H    5.410248   2.874217   2.008949
H    9.098974   0.309348  -3.758363
H    9.563621  -2.069666  -1.419940
H   11.962363   0.152539  -2.061351
H    9.532477   4.481901   2.826104
H   12.307050   3.300822   1.073383

