%chk=mol_4895.chk
# wB97XD/Def2SVP opt pop=full gfinput

C 4 H 12 N 2 O 1

1 2
C    5.637186  -2.350611  -1.541733
C    4.964556  -0.328359   0.390663
O    5.685184  -1.205910   2.850255
C    6.181540   2.292181  -0.154863
N    5.436988   4.085248   1.872171
C    9.107649   2.208617  -0.301260
N   10.268904   1.466465   2.120424
H    5.215606  -1.723676  -3.465399
H    4.556035  -4.075289  -1.163561
H    7.630450  -2.889731  -1.423776
H    2.902506  -0.115406   0.418461
H    7.513872  -0.889097   2.980211
H    5.463708   3.011694  -1.960156
H    5.695993   3.142066   3.546846
H    3.523035   4.323693   1.793086
H    9.822872   4.082224  -0.823089
H    9.725702   0.902968  -1.780708
H    9.839086   2.875275   3.380569
H   12.187449   1.560744   1.920680

