%chk=mol_1786.chk
# wB97XD/Def2SVP opt pop=full gfinput

C 5 H 10 N 2

1 2
C    1.912951  -0.035867  -0.192034
N    4.661407   0.022979  -0.134756
C    5.594912   2.618556   0.000000
C    8.323677   2.618556   0.000000
C   10.572753   2.618556   0.000000
C   13.301517   2.618556   0.000000
N   14.247061   5.180193  -0.341889
H    1.267987  -1.999160  -0.277676
H    1.164827   0.951326  -1.849399
H    1.109496   0.807272   1.517790
H    5.357619  -0.798466  -1.730838
H    4.900287   3.529687   1.725603
H    4.897244   3.716600  -1.612522
H   14.025019   1.413458  -1.518754
H   14.026171   1.863346   1.784582
H   13.587338   5.864538  -2.014958
H   16.162260   5.124862  -0.490497

