%chk=mol_3515.chk
# wB97XD/Def2SVP opt pop=full gfinput

C 6 H 10 O 1

1 2
O    1.569191   0.054103  -1.041825
C    4.146947   0.020825  -0.173817
C    5.944398  -1.439026  -1.835718
C    5.988844   1.397150  -1.858168
C    4.416271   0.039269   2.713118
C    2.647563   1.495189   4.415137
C    2.608124  -1.340742   4.436567
H    1.454579   0.043464  -2.871968
H    5.188678  -2.415826  -3.466948
H    7.502723  -2.417489  -0.934564
H    7.577386   2.340369  -0.972302
H    5.263832   2.371153  -3.504951
H    6.380055   0.016705   3.344966
H    1.062612   2.464997   3.552742
H    3.451642   2.462370   6.029171
H    3.385312  -2.305542   6.065322
H    0.996509  -2.279123   3.588590

