%chk=mol_4755.chk
# wB97XD/Def2SVP opt pop=full gfinput

C 4 H 11 N 1 O 2

1 2
C    1.843144  -0.218660  -0.052194
C    4.741757  -0.033694  -0.129862
N    5.704894  -1.466975   2.088261
C    5.774020  -1.277039  -2.563867
O    5.270635  -3.927947  -2.545386
C    5.612921   2.753784  -0.003950
O    4.940803   3.888206   2.351764
H    0.999722   0.818762  -1.634008
H    1.063840   0.568052   1.697673
H    1.194874  -2.182067  -0.179959
H    5.165680  -0.486151   3.671965
H    7.632831  -1.332578   2.120688
H    7.825262  -1.037138  -2.713609
H    4.905465  -0.463795  -4.257194
H    5.368145  -4.406747  -0.756968
H    4.786280   3.877548  -1.535932
H    7.671986   2.881908  -0.170567
H    3.128498   4.193624   2.324836

