%chk=mol_0222.chk
# wB97XD/Def2SVP opt pop=full gfinput

C 4 H 6 N 2

1 2
C    0.752753   2.952055   0.885053
C    1.682782   0.672478  -0.524229
N    1.777098  -1.816254   0.708024
N   -0.690468  -2.628174   0.948567
C   -2.274569  -0.872694   0.309726
C   -1.054486   1.414101  -0.674557
H    1.298355   4.795728   0.183984
H    0.626936   2.836555   2.926713
H    2.874973   0.951080  -2.164606
H    2.827163  -3.128933  -0.242981
H   -4.341967  -1.052974   0.404175
H   -1.745049   2.169935  -2.441885

