%chk=mol_1362.chk
# wB97XD/Def2SVP opt pop=full gfinput

C 6 H 9 N 1

1 2
C    1.812285   0.225274   0.418196
C    4.022641   0.218452  -0.098587
C    6.725233   0.209967  -0.733932
N    8.143227   1.582929   1.195649
C   10.858234   1.656005   0.666299
C   11.942257   3.905497  -0.684289
C   12.461194   3.527476   2.078396
H   -0.149099   0.246590   0.879214
H    7.001454   1.091052  -2.587262
H    7.395954  -1.746957  -0.858692
H    7.802547   0.762807   2.905170
H   11.736598  -0.167638   0.298482
H   10.677765   5.427275  -1.215453
H   13.474900   3.587437  -2.003242
H   14.346121   2.950014   2.631293
H   11.548721   4.796749   3.401942

