%chk=mol_2834.chk
# wB97XD/Def2SVP opt pop=full gfinput

C 6 H 12 O 1

1 2
C    1.793785  -0.282401  -0.052270
C    4.615089   0.305077  -0.119298
C    5.368788   3.067592   0.017858
C    3.737746   4.999856   0.268965
C    8.198425   3.577459  -0.067369
C    9.308451   3.440228  -2.736361
O    8.423077   5.471702  -4.260539
H    1.495529  -2.328558  -0.155298
H    0.809710   0.577897  -1.655854
H    0.923434   0.390153   1.699034
H    5.387269  -0.510132  -1.860757
H    5.512407  -0.692244   1.460569
H    1.706990   4.731081   0.370651
H    4.395370   6.942079   0.386808
H    9.163641   2.208523   1.154188
H    8.594210   5.452351   0.723822
H    8.854331   1.657460  -3.682490
H   11.368196   3.596413  -2.639362
H    6.584902   5.389367  -4.244571

