%chk=mol_6570.chk
# wB97XD/Def2SVP opt pop=full gfinput

C 4 H 4 O 2 S 1

1 2
C    4.425380  -1.508531  -1.989258
C    4.649331  -0.027042   0.051684
S    5.938540   2.948200  -0.181225
O    5.933287   3.975719  -2.711417
O    5.587920   4.417953   2.092286
C    9.271356   2.438521   0.111116
C   11.509509   2.097615   0.305134
H    3.601610  -3.381022  -1.837475
H    5.036479  -0.897450  -3.854304
H    4.026591  -0.628164   1.902217
H   13.495385   1.820203   0.473093

