%chk=mol_2119.chk
# wB97XD/Def2SVP opt pop=full gfinput

C 5 H 8 N 2

1 2
N    4.987460  -2.128909  -0.645134
C    4.030143   0.069939   0.318173
N    1.894450  -0.025001   1.519850
C    5.413442   2.554267   0.002778
C    4.075251   4.695951   0.242414
C    8.126673   2.519345  -0.415834
C    9.409438   4.099931  -1.919357
H    6.226988  -1.895433  -2.092059
H    3.701350  -3.490910  -1.021775
H    1.296503  -1.855409   1.622859
H    2.055172   4.652544   0.608378
H    4.946982   6.544424   0.115462
H    9.153418   1.053466   0.599912
H    8.484568   5.588147  -2.986240
H   11.445542   3.934731  -2.108424

