%chk=mol_6664.chk
# wB97XD/Def2SVP opt pop=full gfinput

C 4 H 2 N 2 S 1

1 2
N    1.589354   0.502289   0.010072
C    3.779773   0.348692   0.003326
C    6.477830   0.104181  -0.004800
N    7.996509   2.082818  -0.016025
C   10.485051   1.292497  -0.021751
C   10.844968  -1.285373  -0.014834
S    7.974814  -2.787233  -0.000624
H   11.980467   2.692312  -0.031105
H   12.602376  -2.326499  -0.017348

