%chk=mol_5608.chk
# wB97XD/Def2SVP opt pop=full gfinput

C 5 H 11 N 1 O 1

1 2
N    3.453361  -0.108621   2.499257
C    4.291077   0.369366  -0.076761
C    6.212626   2.433495   0.012964
C    6.340258   4.391912  -2.060746
C    5.426046   5.131835   0.534944
C    7.002172   6.733624   2.234091
O    6.191763   9.284055   2.017661
H    2.098654  -1.479126   2.475012
H    2.585448   1.473760   3.179955
H    2.672186   0.876512  -1.259578
H    5.142020  -1.343652  -0.858881
H    7.986984   1.775001   0.805874
H    4.957337   4.314604  -3.572300
H    8.197310   5.007529  -2.670334
H    3.425979   5.506114   0.788224
H    9.014503   6.640592   1.766062
H    6.764577   6.146372   4.200654
H    6.340447   9.732052   0.240638

