%chk=mol_1865.chk
# wB97XD/Def2SVP opt pop=full gfinput

C 7 H 10

1 2
C    5.636052  -2.315954  -1.132173
C    4.616714   0.013965   0.215807
C    6.450731   2.255124   0.125950
C    5.448137   4.492616   1.583779
C    5.229099   6.501735   0.050134
C    6.039036   5.814347  -2.455926
C    6.756546   3.385047  -2.475428
H    4.317420  -3.894744  -0.914835
H    7.458031  -2.891338  -0.340113
H    5.881716  -1.974556  -3.156126
H    4.242756  -0.487266   2.193537
H    2.787932   0.526591  -0.619509
H    8.301321   1.708237   0.880839
H    4.993261   4.468144   3.572905
H    4.569112   8.358542   0.575535
H    6.065019   7.094901  -4.043806
H    7.473829   2.383266  -4.101783

