%chk=mol_6847.chk
# wB97XD/Def2SVP opt pop=full gfinput

C 5 H 8 N 2

1 2
C    1.882621   0.049152   0.102782
C    4.745990  -0.071677   0.016743
N    5.961216   1.862420   1.661485
C    7.923149  -0.029688   2.317163
C    6.037561  -2.141135   1.634122
C    7.063494  -4.256192   0.260121
N    7.877664  -5.976467  -0.831744
H    1.065144  -1.546382  -0.930558
H    1.193135   1.788815  -0.781062
H    1.158780  -0.017499   2.041112
H    5.434569   0.031521  -1.941013
H    4.887096   2.418320   3.166463
H    9.604250   0.098266   1.110309
H    8.533002   0.017367   4.292626
H    4.900098  -2.728273   3.269925

