%chk=mol_7040.chk
# wB97XD/Def2SVP opt pop=full gfinput

C 6 H 11 N 1

1 2
C    4.231324   5.984914   2.965585
C    5.292065   3.724235   2.550280
C    5.976769   2.741766  -0.026947
C    8.788833   2.103568  -0.292945
C   10.453172   4.388530  -0.040365
C   12.027427   4.783294   2.301195
N   13.194162   4.026591  -0.079595
H    3.763333   6.591270   4.868539
H    3.798973   7.272913   1.428463
H    5.675226   2.489733   4.149461
H    5.435646   4.104372  -1.493091
H    4.870145   1.024043  -0.374752
H    9.090735   1.278456  -2.171088
H    9.313213   0.646192   1.086800
H    9.758413   6.018759  -1.065919
H   11.999535   3.358402   3.769834
H   12.378122   6.695488   2.936256
H   14.069805   5.526391  -0.923641

