%chk=mol_3446.chk
# wB97XD/Def2SVP opt pop=full gfinput

C 5 H 6 O 2

1 2
C    1.911080  -0.139537   0.121113
O    4.593168  -0.016875   0.112363
C    5.468886   2.529493   0.000000
C    8.197651   2.529493   0.000000
C   10.446728   2.529493   0.000000
C   13.168727   2.507799   0.001058
O   14.370706   4.481410  -0.058241
H    1.350720  -2.126093   0.208210
H    1.141659   0.687501  -1.611124
H    1.146006   0.834768   1.776966
H    4.748995   3.575532   1.635766
H    4.748749   3.427245  -1.721522
H   14.058088   0.627389   0.057712

