%chk=mol_3820.chk
# wB97XD/Def2SVP opt pop=full gfinput

C 7 H 14

1 2
C    2.299079   4.139936  -2.916093
C    4.599064   4.767704  -1.309410
C    6.841187   3.054043  -1.961139
C    9.173033   3.526267  -0.282986
C   11.229566   1.580756  -0.874546
C   10.229107   6.153647  -0.643773
C   10.468667   7.853116   1.217116
H    0.727809   5.395489  -2.436613
H    1.683727   2.191270  -2.599413
H    2.716425   4.372108  -4.927990
H    4.108850   4.552974   0.692150
H    5.096478   6.754807  -1.612673
H    7.340093   3.307040  -3.959014
H    6.249589   1.077408  -1.745616
H    8.613050   3.264710   1.697125
H   11.840835   1.694839  -2.850879
H   10.538492  -0.341606  -0.534641
H   12.894547   1.868618   0.323672
H   10.825145   6.673020  -2.543647
H    9.903450   7.430252   3.143238
H   11.241489   9.715327   0.843347

