%chk=mol_2907.chk
# wB97XD/Def2SVP opt pop=full gfinput

C 6 H 8 O 1

1 2
C    1.958229  -0.576102  -0.241866
C    4.742098  -0.090367  -0.235120
C    5.931888   2.150489   0.000000
C    4.598252   4.668814   0.201898
O    4.449247   5.451066   2.768562
C    8.588843   2.150489   0.000000
C   10.837919   2.150489   0.000000
H    1.516203  -2.064337   1.125256
H    1.362077  -1.223333  -2.112525
H    0.833879   1.077427   0.269116
H    5.886327  -1.796544  -0.417667
H    2.683506   4.613181  -0.570527
H    5.616682   6.124489  -0.860808
H    4.390760   3.933389   3.801864
H   12.850686   2.156140   0.003704

