%chk=mol_0915.chk
# wB97XD/Def2SVP opt pop=full gfinput

C 6 H 10

1 2
C    1.860965   0.136627  -0.198950
C    4.666830  -0.304378   0.026192
C    5.443262  -3.000583  -0.444161
C    6.220052   1.627149   0.601141
C    8.933359   1.524574   0.884467
C   10.325142   3.554991   1.463328
H    1.340232   2.108764   0.148287
H    0.840002  -1.031356   1.171328
H    1.208423  -0.357914  -2.100072
H    4.502783  -4.253320   0.909053
H    7.471845  -3.327524  -0.272971
H    4.886341  -3.573642  -2.353635
H    5.386249   3.488793   0.892896
H    9.896326  -0.267018   0.619188
H    9.494437   5.407187   1.755877
H   12.361889   3.397406   1.658934

