%chk=mol_3494.chk
# wB97XD/Def2SVP opt pop=full gfinput

C 5 H 8 O 2

1 2
O    3.223041  -0.251277  -1.729251
C    5.395830   0.180922  -0.180960
C    6.622734  -2.091133   0.994015
C    7.839340  -0.724634  -1.185803
C    9.699624   1.345674  -0.792117
O    8.302418   3.560698  -0.061775
C    5.828539   2.801122   0.772974
H    1.667627  -0.091293  -0.763336
H    5.803822  -3.930555   0.620775
H    7.455707  -1.902349   2.854375
H    7.896750  -1.578734  -3.036922
H   11.046602   0.890099   0.710783
H   10.750520   1.781294  -2.518438
H    5.780786   2.871515   2.839578
H    4.450191   4.149234   0.028592

