%chk=mol_6855.chk
# wB97XD/Def2SVP opt pop=full gfinput

C 5 H 12 N 2

1 2
C    1.956906   0.057504  -0.114593
C    4.827400   0.034771   0.079066
N    5.771904   2.046951   1.750945
C    8.377855   1.279118   2.305485
C    8.326568  -1.588088   2.543552
C    5.871228  -2.414862   1.264548
N    6.261494  -4.486078  -0.521319
H    1.290437  -1.466635  -1.344918
H    1.289417   1.850684  -0.903913
H    1.066354  -0.187952   1.738605
H    5.625034   0.324844  -1.814005
H    4.762488   2.022687   3.395214
H    9.606385   1.845299   0.737144
H    9.090112   2.190722   4.019353
H   10.019630  -2.421004   1.688754
H    8.296124  -2.158445   4.535532
H    4.574725  -3.092575   2.736172
H    7.511907  -3.936470  -1.884170
H    4.613218  -4.860829  -1.449136

