%chk=mol_0014.chk
# wB97XD/Def2SVP opt pop=full gfinput

C 2 H 7 N 1

1 2
C    1.898419  -0.001946  -0.001946
N    4.650087   0.024869   0.018689
C    5.609123   2.604232   0.005612
H    1.227642  -1.958663   0.012756
H    1.142132   0.917065  -1.694971
H    1.127959   0.931767   1.676489
H    5.305066  -0.902854  -1.537330
H    4.978786   3.646586   1.678587
H    5.014785   3.626762  -1.692628
H    7.677164   2.571237   0.036831

