%chk=mol_5645.chk
# wB97XD/Def2SVP opt pop=full gfinput

C 4 H 7 N 1 O 2

1 2
N    4.082886  -0.871863  -2.575470
C    4.484093   0.095979  -0.017215
C    5.947441   2.553493  -0.097793
C    4.511003   4.933678  -0.909034
O    4.861831   6.031590   1.584025
C    6.085712   3.949452   2.445721
O    6.897973   3.537416   4.539595
H    2.977226  -2.451957  -2.484196
H    5.760830  -1.472871  -3.315033
H    5.516489  -1.319615   1.085289
H    2.642366   0.361807   0.891932
H    7.820443   2.372419  -0.967823
H    2.504908   4.699843  -1.351759
H    5.429467   6.067022  -2.373742

