%chk=mol_6008.chk
# wB97XD/Def2SVP opt pop=full gfinput

C 4 H 6 N 2 O 1

1 2
O    1.698618  -0.306759   0.242206
C    4.012172  -0.144186   0.118297
C    5.334092   2.340634  -0.209892
C    8.191812   2.252837   0.009127
N    9.368979  -0.231284  -0.214824
C    8.026083  -2.216649  -0.097888
N    5.470285  -2.252856   0.140671
H    4.584192   3.652047   1.199825
H    4.805611   3.078515  -2.072746
H    8.769237   3.086471   1.819882
H    8.996098   3.476265  -1.449174
H    8.878576  -4.115824  -0.174100
H    4.533037  -3.911525   0.248159

