%chk=mol_6487.chk
# wB97XD/Def2SVP opt pop=full gfinput

C 3 H 6 O 3 S 1

1 2
C    1.843333   0.148362   0.118958
C    4.680190  -0.155808  -0.056843
O    5.972120   1.701188   1.477879
C    7.929574   0.028629   2.369603
S    6.097145  -2.633806   1.650940
O    4.597836  -3.480498   3.783780
O    7.422107  -4.385261   0.010167
H    0.885715  -1.405068  -0.857407
H    1.246293   1.917071  -0.771783
H    1.190452   0.174630   2.080116
H    5.345166  -0.075438  -2.016300
H    9.668954   0.207397   1.267080
H    8.309561   0.276354   4.382577

