%chk=mol_2207.chk
# wB97XD/Def2SVP opt pop=full gfinput

C 5 H 8 O 2

1 2
C    3.346611   0.248669  -1.293121
C    3.333458  -0.235951   1.513463
C    0.917991  -0.009940   0.095545
O   -0.602653   2.191289   0.478025
C   -3.113475   1.373604  -0.131317
C   -3.086131  -1.463725   0.347955
O   -0.570489  -2.233033  -0.286993
H    3.880836   2.113602  -1.942865
H    3.906423  -1.281896  -2.529304
H    3.883104  -2.093420   2.170691
H    3.855703   1.302097   2.757337
H   -4.505958   2.365314   1.028502
H   -3.451868   1.795580  -2.129797
H   -4.473190  -2.477185  -0.795953
H   -3.394817  -1.888006   2.348514

