%chk=mol_4201.chk
# wB97XD/Def2SVP opt pop=full gfinput

C 4 H 4 N 2 O 1

1 2
C    2.135258  -0.027571   0.152709
C    4.633703  -0.016648  -0.211404
O    5.984139  -2.145350  -0.875019
C    8.310468  -1.046341  -1.012629
N    8.618172   1.321221  -0.552991
C    6.286306   2.203553   0.015628
N    5.886572   4.506676   0.596662
H    1.098006   1.663167   0.662141
H    1.065220  -1.763662  -0.062569
H    9.800914  -2.392507  -1.542149
H    4.017463   4.798034   0.968239

