%chk=mol_3053.chk
# wB97XD/Def2SVP opt pop=full gfinput

C 7 H 14

1 2
C    2.755580  -2.686794   0.588990
C    5.504753  -2.008363   1.184764
C    7.235005  -4.186726   0.402871
C    6.204292   0.496166  -0.130334
C    8.882809   1.474534   0.391835
C    9.354163   2.026051   3.135339
C   11.141768   0.893103   4.522096
H    1.475536  -1.184537   1.212429
H    2.200170  -4.428479   1.559742
H    2.473368  -2.968420  -1.442447
H    5.653248  -1.766006   3.237271
H    7.229601  -4.450040  -1.650203
H    6.619106  -5.960706   1.274904
H    9.185146  -3.857649   1.005108
H    4.842858   1.956150   0.437982
H    5.987975   0.273954  -2.181859
H    9.151717   3.237895  -0.664277
H   10.284816   0.145225  -0.353568
H    8.163465   3.452945   4.015517
H   12.378821  -0.537268   3.727258
H   11.398752   1.375210   6.500148

