%chk=mol_2948.chk
# wB97XD/Def2SVP opt pop=full gfinput

C 6 H 12 O 1

1 2
C    5.542359  -2.018246   1.302796
C    5.060894  -0.171436  -0.860336
C    5.812968   2.594348  -0.303887
C    5.127696   4.259367  -2.570575
O    4.364700   3.490834   1.784752
C    8.614695   2.846135   0.235328
C    9.699341   3.967763   2.232541
H    4.977350  -3.924829   0.734461
H    4.445637  -1.517620   2.981062
H    7.541973  -2.083612   1.817935
H    3.032500  -0.248102  -1.293593
H    6.062922  -0.852077  -2.545594
H    6.133201   3.683681  -4.285748
H    5.569136   6.247850  -2.193197
H    3.092839   4.180963  -2.951280
H    4.951555   2.600339   3.278240
H    9.859551   2.040848  -1.194647
H    8.601296   4.870750   3.710572
H   11.741662   4.048209   2.403354

