%chk=mol_5835.chk
# wB97XD/Def2SVP opt pop=full gfinput

C 4 H 8 N 2 O 1

1 2
N   -0.622551   1.629001  -1.680552
C    1.094869   2.376236   0.097094
N    0.548172   4.109814   1.729307
C    3.719416   1.161482   0.143052
O    3.636778  -1.156248  -1.235881
C    5.820905  -2.528416  -1.346165
C    8.068544  -2.032344  -0.303509
H   -0.187877  -0.060944  -2.496517
H   -2.463919   1.760639  -1.184367
H   -1.236240   4.765322   1.381541
H    4.238448   0.822465   2.119498
H    5.042829   2.487333  -0.740243
H    5.505377  -4.216980  -2.467151
H    8.438969  -0.367117   0.829023
H    9.631122  -3.335215  -0.569790

