%chk=mol_3433.chk
# wB97XD/Def2SVP opt pop=full gfinput

C 5 H 10 O 2

1 2
C    5.589923  -0.080351   2.378863
O    5.140452   1.344899   0.142107
C    6.291711   3.794173   0.065687
C    5.524331   4.943297  -2.481078
C    5.348114   5.507682   2.199169
C    9.180063   3.585547   0.055728
O   10.583014   4.541692   1.638109
H    4.748334  -1.948497   2.117117
H    4.682571   0.797937   4.012795
H    7.611590  -0.327206   2.719070
H    6.110013   3.723441  -4.050477
H    6.378317   6.805924  -2.770735
H    3.466041   5.130342  -2.617592
H    6.023483   4.867916   4.047831
H    3.279865   5.517962   2.278802
H    6.011597   7.453722   1.953618
H    9.974182   2.447876  -1.502446

