%chk=mol_5046.chk
# wB97XD/Def2SVP opt pop=full gfinput

C 5 H 11 N 1 O 1

1 2
C    2.236585   0.244663   0.318343
N    4.922793  -0.059451  -0.265620
C    5.236847  -1.445811  -2.640231
C    6.245129   2.398384  -0.339414
C    7.222628   3.507729   2.089640
C    9.051675   2.512599   0.167600
O   10.451754   4.351661  -1.255496
H    1.995664   1.199787   2.138754
H    1.311357  -1.599256   0.483959
H    1.248826   1.350417  -1.126881
H    4.345539  -3.309931  -2.520762
H    7.243453  -1.767877  -3.032274
H    4.419918  -0.426152  -4.246441
H    5.519644   3.725501  -1.733484
H    6.989644   2.424745   3.813127
H    7.058033   5.528054   2.353389
H   10.005231   0.747972   0.600574
H    9.756051   6.042702  -1.090183

