%chk=mol_2308.chk
# wB97XD/Def2SVP opt pop=full gfinput

C 6 H 6 O 1

1 2
C    1.785054   0.035395  -0.011716
C    4.574422   0.079992  -0.004649
C    6.220487   2.000105   0.003817
C    8.773205   1.080035   0.009222
C    8.821752  -1.442428   0.004857
C    6.153345  -2.219105  -0.004044
O    5.396737  -4.388247  -0.009732
H    1.004635   1.949952  -0.000699
H    1.070700  -0.954198   1.657309
H    1.079128  -0.931786  -1.697390
H    5.735206   3.982995   0.006387
H   10.413846   2.295450   0.015949
H   10.397783  -2.721225   0.007105

