%chk=mol_1317.chk
# wB97XD/Def2SVP opt pop=full gfinput

C 5 H 6 N 2

1 2
C    1.874268  -0.015666   0.164368
C    4.762110   0.000000   0.000000
C    5.631327  -1.399682  -2.384268
C    8.346504  -1.974499  -2.293655
N   10.479930  -2.462294  -2.194803
C    5.672996   2.572238   0.000000
N    6.399047   4.622572   0.000000
H    1.222313   0.969014   1.866142
H    1.151127  -1.953580   0.241734
H    1.015104   0.923963  -1.470018
H    5.490278  -0.981486   1.676735
H    5.205420  -0.296611  -4.088082
H    4.599820  -3.190122  -2.558859

