%chk=mol_4132.chk
# wB97XD/Def2SVP opt pop=full gfinput

C 4 H 7 N 1 O 2

1 2
C    1.642380  -0.092502   0.167959
C    4.488307   0.029310  -0.056748
N    5.339478   0.229980  -2.717842
C    5.908323   1.958096   1.592964
O    7.188518  -0.059300   2.947746
C    5.997670  -1.909115   1.604472
O    6.245394  -4.170682   1.810282
H    1.046549  -0.196380   2.147919
H    0.887661  -1.760733  -0.797691
H    0.753131   1.583439  -0.660610
H    7.243433   0.039835  -2.967154
H    4.818518   1.851497  -3.614517
H    4.734142   3.081576   2.873669
H    7.264939   3.202689   0.648271

