%chk=mol_1434.chk
# wB97XD/Def2SVP opt pop=full gfinput

C 4 H 7 N 3

1 2
C    1.857261  -0.229054  -0.152652
C    4.690300   0.000000   0.000000
C    6.018778  -2.300987   0.000000
N    7.106334  -4.184685   0.000000
C    5.958382   2.229178   0.058903
N    4.791854   4.541503   0.065573
N    8.541241   2.418056   0.129635
H    0.876398   1.578432  -0.353927
H    1.120872  -1.152714   1.549764
H    1.319237  -1.379122  -1.791782
H    3.019537   4.528275   0.801905
H    5.882869   5.826025   0.988969
H    9.489203   0.814491  -0.354909
H    9.146974   3.904458  -0.927837

