%chk=mol_3679.chk
# wB97XD/Def2SVP opt pop=full gfinput

C 6 H 12 O 1

1 2
O    4.685028   3.168523  -3.990289
C    4.394124   4.160515  -1.510364
C    5.599221   2.362951   0.387772
C    8.472342   2.458515   0.206471
C    9.824006   4.782292   1.390177
C   11.928764   2.951166   2.234431
C    9.924388   0.836941   2.174206
H    3.865397   4.343517  -5.141756
H    2.368205   4.331913  -1.129376
H    5.251813   6.041946  -1.439423
H    4.959568   0.428609   0.015515
H    4.988064   2.874292   2.299060
H    9.135597   2.064129  -1.723846
H    8.807616   5.656687   2.968835
H   10.401771   6.256467   0.064950
H   13.436425   2.711870   0.834371
H   12.774133   3.337710   4.078256
H   10.585604  -1.002103   1.504165
H    8.936685   0.580014   3.977987

