%chk=mol_4193.chk
# wB97XD/Def2SVP opt pop=full gfinput

C 5 H 11 N 1 O 1

1 2
C    1.816235  -0.026985   0.064364
C    4.685727  -0.059753  -0.037776
O    5.470682  -0.079690  -2.669843
C    6.004473   1.964427   1.646235
C    7.964043  -0.076591   2.373043
C    5.944700  -2.078396   1.725755
N    7.105994  -4.072889   0.202730
H    1.120400   0.002249   2.013560
H    1.029750  -1.703342  -0.859977
H    1.066032   1.644345  -0.897941
H    7.234741   0.439985  -2.647280
H    4.865912   2.634316   3.242033
H    6.779166   3.602857   0.652220
H    9.645578  -0.054462   1.160292
H    8.578714  -0.038191   4.346238
H    4.823053  -2.725873   3.338409
H    7.401717  -3.526796  -1.628585
H    5.955472  -5.610125   0.017215

