%chk=mol_6750.chk
# wB97XD/Def2SVP opt pop=full gfinput

C 6 H 9 N 1

1 2
C    2.405980  -0.181905   0.158397
C    5.184502  -0.019993  -0.264486
C    6.308794  -0.799184  -2.770263
N    6.146448   1.861890  -2.038296
C    8.568283   2.967872  -1.260920
C    9.730559   4.283593  -3.349974
C   10.688518   5.368032  -5.071798
H    1.821998   1.189620   1.592964
H    1.900819  -2.070743   0.833728
H    1.324056   0.192620  -1.566356
H    6.250761  -0.396408   1.442730
H    5.054111  -1.371374  -4.283990
H    8.144172  -1.704854  -2.788083
H    9.888464   1.562123  -0.494352
H    8.201317   4.311618   0.273765
H   11.527349   6.339407  -6.622753

