%chk=mol_3285.chk
# wB97XD/Def2SVP opt pop=full gfinput

C 5 H 6 O 2

1 2
C    1.837041  -0.106788   0.208493
C    4.693626  -0.081636  -0.090915
O    5.311397  -1.344578  -2.393811
C    5.696693   2.625793  -0.082071
O    6.394909   3.716921  -2.006738
C    5.805768   3.908313   2.331752
C    5.899366   4.978616   4.331422
H    1.247011   0.747462   1.996892
H    1.115713  -2.045194   0.131997
H    0.925834   0.934394  -1.332767
H    5.592928  -1.137332   1.444601
H    5.412251  -0.040289  -3.700707
H    5.994060   5.946703   6.095312

