%chk=mol_4920.chk
# wB97XD/Def2SVP opt pop=full gfinput

C 5 H 9 N 1 O 1

1 2
C    5.672297  -3.142539   1.939672
C    4.649293  -0.871674   0.566200
O    2.428449  -0.715337  -0.093749
N    6.306394   1.054618   0.065970
C    8.902991   1.162578   0.763601
C   10.894403  -0.138215  -0.789584
C   10.732567   2.690913  -0.786863
H    7.164935  -4.035737   0.827360
H    4.152106  -4.516464   2.214117
H    6.394228  -2.587507   3.793134
H    5.516186   2.546236  -0.839738
H    9.185543   1.223163   2.799043
H   10.317943  -1.127826  -2.488070
H   12.458908  -1.013989   0.200273
H   12.189792   3.734496   0.204714
H   10.060996   3.606467  -2.491169

