%chk=mol_0045.chk
# wB97XD/Def2SVP opt pop=full gfinput

C 3 H 6 O 1

1 2
O    1.867352  -0.134246  -0.569866
C    4.443181  -0.057580   0.163386
C    5.268330   2.635053   0.102026
C    6.313292   3.869517   2.049295
H    1.336093  -1.886533  -0.443141
H    5.551089  -1.172840  -1.179624
H    4.627694  -0.888020   2.048879
H    4.968751   3.633811  -1.668836
H    6.632901   2.960199   3.859614
H    6.853432   5.840369   1.867616

