%chk=mol_6935.chk
# wB97XD/Def2SVP opt pop=full gfinput

C 5 H 8 N 2

1 2
C    3.191407  -1.375229  -1.791687
C    3.969332   0.279094  -0.038248
C    5.927296   2.309283  -0.335124
C    6.700289   3.053835  -3.008954
C    7.061982   5.824306  -2.624565
N    6.152438   6.728824  -0.547510
N    5.032983   4.746482   0.635156
H    1.752929  -2.767976  -1.336717
H    3.939399  -1.402630  -3.699347
H    3.124776   0.141805   1.834282
H    7.616957   1.758560   0.735670
H    5.247581   2.791957  -4.455993
H    8.472380   2.177040  -3.605692
H    8.009547   6.982085  -4.064706
H    5.179021   4.875153   2.553247

