%chk=mol_4465.chk
# wB97XD/Def2SVP opt pop=full gfinput

C 5 H 13 N 1 O 1

1 2
C    0.133509  -1.409925   2.165570
C    2.406283  -1.692817   0.403721
C    2.715480  -4.471224  -0.339678
N    2.146748  -0.200783  -1.926992
C    2.160392   2.545253  -1.462327
C    2.102396   3.949017  -4.000834
O    0.025530   3.076625  -5.479053
H    0.010998   0.498566   2.951733
H    0.279415  -2.715952   3.765582
H   -1.644081  -1.817180   1.179775
H    4.122362  -1.113956   1.412986
H    1.060080  -5.170593  -1.371658
H    2.962883  -5.657065   1.340099
H    4.380688  -4.743647  -1.541469
H    3.620073  -0.632170  -3.099434
H    3.834557   3.120713  -0.389529
H    0.463531   3.073980  -0.402077
H    3.841038   3.615726  -5.070664
H    1.890255   5.983893  -3.707699
H   -0.192393   1.303835  -4.993412

