%chk=mol_5990.chk
# wB97XD/Def2SVP opt pop=full gfinput

C 4 H 5 N 1 O 2

1 2
O    1.890898  -0.234496  -0.011130
C    4.377966   0.046053   0.000548
C    5.905904   2.150376   0.006727
C    8.442068   1.286167   0.019237
C    8.393861  -1.315911   0.020352
O   10.290163  -2.955626   0.030273
N    5.905035  -2.043720   0.008863
H    1.157495   1.454522  -0.015439
H    5.288266   4.098362   0.002797
H   10.135036   2.432134   0.026702
H    9.629497  -4.668606   0.028138
H    5.241552  -3.829983   0.006614

