%chk=mol_5117.chk
# wB97XD/Def2SVP opt pop=full gfinput

C 4 H 8 N 2 O 1

1 2
C    2.166401   0.078367  -0.922262
N    4.506335   0.090140   0.526402
C    5.770921  -2.337157   0.793572
C    5.875102   2.296698   0.750391
N    5.117548   4.516654   0.086228
C    6.789332   6.458064   0.481653
O    8.941674   6.293279   1.328780
H    0.973096   1.694215  -0.423677
H    1.062253  -1.629851  -0.540764
H    2.574015   0.152463  -2.949296
H    4.410507  -3.848824   1.175202
H    7.110473  -2.304975   2.370586
H    6.802655  -2.802483  -0.937682
H    7.760822   1.965410   1.594041
H    6.034235   8.326209  -0.056786

