%chk=mol_1282.chk
# wB97XD/Def2SVP opt pop=full gfinput

C 6 H 11 N 1

1 2
C    1.889726   0.000000   0.000000
C    4.618491   0.000000   0.000000
C    6.867567   0.000000   0.000000
C    9.596332   0.000000   0.000000
N   10.651895   2.574090   0.029914
C   10.192446   3.831476   2.456039
C   13.370814   2.489091  -0.478724
H    1.145401   1.929221   0.026702
H    1.145117  -0.987439   1.657422
H    1.144966  -0.941405  -1.683935
H   10.221529  -0.969411  -1.724356
H   10.324292  -1.111537   1.592548
H    8.168379   4.062685   2.815012
H   10.994577   5.741064   2.441148
H   11.025172   2.794036   4.043069
H   13.738630   1.653529  -2.335683
H   14.398957   1.394712   0.946602
H   14.161664   4.401834  -0.528575

