%chk=mol_0521.chk
# wB97XD/Def2SVP opt pop=full gfinput

C 5 H 9 N 1

1 2
N    1.884699  -0.013814   0.137232
C    4.653640  -0.017159  -0.080276
C    5.607271  -2.328747  -1.576787
C    6.325386  -1.260126  -4.091276
C    6.329354   1.265115  -4.077084
C    5.614679   2.308111  -1.550936
H    1.315042   1.526464   1.141376
H    1.309618  -1.564863   1.121250
H    5.431205  -0.029234   1.839176
H    4.169322  -3.804038  -1.767612
H    7.269021  -3.163420  -0.665032
H    6.800766  -2.413426  -5.708145
H    6.808456   2.434912  -5.681235
H    7.279490   3.126609  -0.629808
H    4.182191   3.790129  -1.724545

