%chk=mol_0305.chk
# wB97XD/Def2SVP opt pop=full gfinput

C 4 H 8 N 2

1 2
C    2.040073  -0.025662   0.019880
C    4.855878   0.011017   0.060925
N    6.232695  -2.017491   0.094184
N    8.658404  -1.206439   0.239202
C    8.906166   1.434907  -0.503347
C    6.299024   2.442962   0.123059
H    1.344994  -1.963860  -0.139632
H    1.362682   1.074404  -1.591244
H    1.321618   0.814774   1.765118
H    9.885838  -2.376727  -0.679753
H    9.271922   1.577279  -2.536409
H   10.408045   2.411650   0.524985
H    5.594553   3.780473  -1.281971
H    6.188797   3.248175   2.024142

