%chk=mol_6978.chk
# wB97XD/Def2SVP opt pop=full gfinput

C 5 H 12 N 2

1 2
C    5.253987  -2.047405  -0.981240
C    4.192546   0.465307  -0.081409
C    6.226005   2.410686   0.241318
N    6.547788   4.437682  -1.608403
C    5.504073   5.096327   0.873110
C    7.059809   6.590684   2.701741
N    6.513697   9.264647   2.321453
H    3.732360  -3.427510  -1.219421
H    6.603421  -2.810438   0.389888
H    6.236040  -1.837626  -2.789463
H    3.247267   0.180431   1.739550
H    2.745564   1.112179  -1.416860
H    7.937077   1.665038   1.087386
H    5.144496   4.423565  -2.934121
H    3.511489   5.572197   0.952101
H    9.085464   6.249211   2.437312
H    6.569047   6.049731   4.636424
H    6.993896   9.710131   0.506957
H    7.683721  10.300652   3.443969

