%chk=mol_3882.chk
# wB97XD/Def2SVP opt pop=full gfinput

C 4 H 6 N 2 O 1

1 2
C    1.732369  -1.968452   1.786963
C    2.191667  -0.620510  -0.656094
C    1.650184   2.137790  -0.940290
O   -0.478573   2.829581   0.593412
N   -2.680841   1.404879   0.018085
C   -2.241801  -0.979313  -0.349259
N    0.007257  -2.319185  -0.366342
H    2.823156  -3.644809   2.202740
H    0.918747  -0.987873   3.385917
H    3.611966  -1.325662  -1.941429
H    3.273988   3.251633  -0.311219
H    1.250545   2.624300  -2.912635
H   -3.846764  -2.219729  -0.824015

