%chk=mol_4293.chk
# wB97XD/Def2SVP opt pop=full gfinput

C 5 H 5 N 1 O 1

1 2
C    1.999406  -0.090726  -0.017763
C    4.265981   0.034015  -0.027949
C    6.960768   0.187102  -0.038097
N    8.172782  -1.916938  -0.167505
O   10.770947  -1.244970  -0.110454
C   10.930403   1.405522  -0.675218
C    8.448853   2.518117   0.176519
H   -0.009146  -0.229148  -0.008069
H   11.210157   1.617606  -2.715820
H   12.545060   2.234847   0.312485
H    7.772992   4.048549  -1.028200
H    8.496984   3.116498   2.154004

