%chk=mol_0516.chk
# wB97XD/Def2SVP opt pop=full gfinput

C 5 H 9 N 1

1 2
N    1.743631   0.003893  -0.550383
C    4.445921  -0.105541   0.011471
C    6.122146  -1.672899  -1.649447
C    6.287912   1.165205  -1.757899
C    8.503295   2.435706  -0.686065
C   10.872861   2.262985  -1.560460
H    0.963156   1.604453   0.184702
H    0.818969  -1.471246   0.274180
H    4.902252  -0.104218   2.016961
H    5.286906  -2.630858  -3.256074
H    7.636931  -2.722812  -0.756061
H    5.513106   2.080740  -3.423466
H    8.163277   3.650611   0.938306
H   11.320971   1.097232  -3.188365
H   12.406241   3.286196  -0.663766

