%chk=mol_2720.chk
# wB97XD/Def2SVP opt pop=full gfinput

C 7 H 8

1 2
C    1.828197  -0.000907  -0.009014
C    4.663353  -0.028913   0.002683
C    5.954432  -2.211358   0.023981
C    6.018778   2.300987   0.000000
C    7.143316   4.248747   0.000000
C    8.471793   6.549734   0.000000
C    7.274444   8.774830   0.000038
H    1.087821   1.930506   0.071205
H    1.079601  -1.022758   1.627810
H    1.099046  -0.880045  -1.734920
H    4.987479  -4.019296   0.028176
H    8.006486  -2.249435   0.035281
H   10.522864   6.486372  -0.000038
H    5.226264   8.899212   0.000094
H    8.332464  10.530933   0.000038

