%chk=mol_1067.chk
# wB97XD/Def2SVP opt pop=full gfinput

C 4 H 11 N 1 O 1

1 2
C    4.104202   4.643681  -4.240432
O    6.487241   4.172553  -3.091800
C    6.213760   2.792675  -0.775298
C    8.825078   2.367487   0.445484
C   10.581295   0.890401  -1.310468
N    9.989697   4.803362   1.099745
H    4.423697   5.692951  -5.990810
H    2.912370   5.782921  -2.994630
H    3.159792   2.862689  -4.700694
H    5.319881   0.965631  -1.174011
H    4.992052   3.855060   0.519391
H    8.568472   1.285694   2.191289
H   10.992291   1.932377  -3.052947
H    9.728575  -0.921525  -1.838987
H   12.385926   0.482938  -0.378342
H    9.875217   5.934307  -0.465534
H   11.867386   4.560627   1.440765

