%chk=mol_6810.chk
# wB97XD/Def2SVP opt pop=full gfinput

C 5 H 10 N 2

1 2
C    1.904920   0.108338  -0.418045
C    4.731667  -0.100817   0.050456
C    5.500634  -2.462823   1.506754
N    5.432150  -1.512537   4.105090
C    6.704238  -3.160680   5.900443
N    5.946496   1.001045   4.206417
C    5.532457   1.841481   1.949800
H    1.255855  -1.409736  -1.665680
H    1.447436   1.919489  -1.311319
H    0.817288   0.001984   1.341573
H    5.803576   0.120810  -1.702265
H    7.423714  -3.018781   0.970922
H    4.221591  -4.060681   1.205286
H    5.986161  -5.097347   5.763098
H    6.352371  -2.515433   7.836241
H    8.750812  -3.187174   5.590339
H    5.715061   3.840075   1.416161

