%chk=mol_5814.chk
# wB97XD/Def2SVP opt pop=full gfinput

C 4 H 8 N 2 O 1

1 2
N    4.565106  -1.456488  -0.202768
C    4.229604   0.752376  -1.152468
N    5.914522   2.685452  -1.087197
C    8.537348   2.263382  -0.416571
C    9.861253   4.756176  -0.271780
C   12.365329   5.196652  -1.553090
O   10.041759   6.079476  -2.634637
H    2.984180  -2.534935  -0.510472
H    2.453110   1.254192  -2.124109
H    5.679893   4.074854  -2.391467
H    9.427182   1.034190  -1.828064
H    8.674410   1.321750   1.424116
H    9.375782   5.837383   1.392426
H   13.302293   3.630693  -2.476751
H   13.626097   6.597771  -0.759764

