%chk=mol_3208.chk
# wB97XD/Def2SVP opt pop=full gfinput

C 6 H 12 O 1

1 2
C    7.962172   0.144281   0.979483
C   10.368303   1.491920   0.193206
O    9.941812   4.146116   0.393498
C   11.853062   5.763476  -0.318835
C   14.157318   5.075804  -1.137691
C   11.139709   8.514785  -0.059583
C    8.989673   9.251173  -1.824379
H    8.195289  -1.906223   0.867800
H    6.384194   0.703942  -0.237690
H    7.439039   0.654148   2.915734
H   10.821951   0.982941  -1.762396
H   11.914081   0.924189   1.448758
H   14.743152   3.125229  -1.329233
H   15.555129   6.488828  -1.647123
H   12.767159   9.738420  -0.449698
H   10.582127   8.885681   1.901216
H    9.476826   8.874097  -3.797991
H    8.575861  11.270024  -1.638808
H    7.257455   8.208441  -1.375362

