%chk=mol_3490.chk
# wB97XD/Def2SVP opt pop=full gfinput

C 6 H 10 O 1

1 2
O    3.151855  -0.458561  -1.697787
C    5.327327   0.101535  -0.212273
C    6.637795  -2.050504   1.081925
C    7.796896  -0.840701  -1.217248
C    9.679707   1.272920  -1.015973
C    8.041748   3.653502  -0.833067
C    5.667591   2.800914   0.590917
H    1.617681  -0.351546  -0.693454
H    5.847606  -3.927701   0.864644
H    7.505973  -1.720841   2.905548
H    7.808499  -1.825891  -3.005326
H   10.844571   1.050253   0.681908
H   10.930838   1.352798  -2.660281
H    9.011405   5.223298   0.096811
H    7.509470   4.265773  -2.740197
H    5.964826   2.913769   2.638284
H    4.041784   3.985527   0.107412

