%chk=mol_6178.chk
# wB97XD/Def2SVP opt pop=full gfinput

C 4 H 7 N 1 O 2

1 2
O    4.185101  -0.996736   2.273813
C    4.162254   0.073170  -0.180488
C    5.298924   2.669899  -0.086455
N    7.653107   3.110187  -0.586136
O    8.039122   5.728762  -0.178126
C    5.604172   6.907383  -0.096924
C    3.835539   4.879519   0.819140
H    5.958571  -1.195271   2.736758
H    2.208712   0.194547  -0.840531
H    5.234598  -1.139637  -1.465199
H    5.124899   7.545960  -2.006889
H    5.654306   8.541751   1.166301
H    1.950859   5.003428  -0.006860
H    3.721268   4.808295   2.881492

