%chk=mol_3132.chk
# wB97XD/Def2SVP opt pop=full gfinput

C 5 H 10 O 2

1 2
C    1.850250  -0.315622   0.376207
C    4.677885   0.050607   0.062701
C    5.480754   2.780883   0.434902
O    4.000645   4.449133   1.098951
C    8.273108   3.354717  -0.000529
O    9.119932   2.753898  -2.473557
C    8.276831   4.542259  -4.298107
H    1.347016  -2.302423   0.104067
H    0.800564   0.813017  -1.004219
H    1.229324   0.255945   2.265234
H    5.235619  -0.544808  -1.838344
H    5.689285  -1.110554   1.444733
H    9.356356   2.212624   1.342953
H    8.655437   5.342104   0.440476
H    9.019096   3.981180  -6.143216
H    8.991280   6.430265  -3.848541
H    6.212059   4.566089  -4.404385

