%chk=mol_1845.chk
# wB97XD/Def2SVP opt pop=full gfinput

C 5 H 8 N 2

1 2
C    5.302307  -1.932698   1.025554
N    5.068340  -0.193413  -1.094907
N    6.256921   2.134578  -0.555050
C    5.028353   4.249975   0.258968
C    6.790957   6.151436   0.516670
C    9.162904   5.136843  -0.202182
C    8.766005   2.648602  -0.875472
H    4.308217  -3.691750   0.582867
H    4.445033  -1.153924   2.741520
H    7.279206  -2.405130   1.416501
H    5.800004  -0.999495  -2.678970
H    3.012261   4.226542   0.587384
H    6.406039   8.060967   1.139845
H   10.958106   6.113680  -0.237954
H   10.065116   1.220253  -1.540146

