%chk=mol_2806.chk
# wB97XD/Def2SVP opt pop=full gfinput

C 6 H 12 O 1

1 2
C    1.697087  -0.058298   0.060679
C    4.546662  -0.287938  -0.382159
C    5.033569  -1.833242  -2.777330
C    5.737473   2.354882  -0.552972
C    8.601618   2.367033  -0.332667
C    9.864238   4.907430  -0.593336
O    9.849536   0.461962   0.129975
H    1.305177   0.979256   1.807447
H    0.826434  -1.927729   0.231378
H    0.772652   0.939874  -1.499460
H    5.360265  -1.309202   1.228001
H    4.277074  -0.883069  -4.453593
H    4.133927  -3.694415  -2.642593
H    7.056370  -2.144442  -3.080348
H    5.027522   3.538474   0.993561
H    5.217949   3.258663  -2.342335
H    9.178419   5.860268  -2.294127
H   11.909205   4.657249  -0.763260
H    9.453053   6.052812   1.076369

