%chk=mol_6492.chk
# wB97XD/Def2SVP opt pop=full gfinput

C 4 H 5 N 1 O 1 S 1

1 2
C    1.614412   0.031162  -0.011149
C    4.419125   0.039987  -0.005499
C    6.094254   2.031531  -0.006652
O    5.323566   4.440025  -0.013398
N    8.614090   1.442768  -0.000718
C    8.851156  -1.031299   0.004687
S    6.094613  -2.740519   0.002778
H    0.853854   1.955054   0.006009
H    0.880461  -0.949209   1.657195
H    0.888360  -0.916952  -1.701415
H    6.858459   5.451595  -0.012793
H   10.675573  -1.954449   0.009940

