%chk=mol_0947.chk
# wB97XD/Def2SVP opt pop=full gfinput

C 4 H 5 N 1 O 1

1 2
C    1.776135   0.020428  -0.013625
C    4.565559   0.032938  -0.002457
C    6.180501   2.067965   0.003893
O    8.610122   1.256006   0.013266
N    8.647670  -1.361926   0.013058
C    6.224455  -2.058309   0.003496
H    1.014027   1.943224   0.005972
H    1.049081  -0.972907   1.649070
H    1.062725  -0.933827  -1.704816
H    5.930962   4.092637   0.003137
H    5.775815  -4.052272   0.001417

