%chk=mol_6632.chk
# wB97XD/Def2SVP opt pop=full gfinput

C 3 H 8 O 3 S 1

1 2
C    2.744506  -0.749598   1.974254
S    6.068440  -0.501477   1.585801
O    7.206017  -0.569431   4.078426
O    6.816639  -2.290254  -0.349732
C    6.449220   2.593328   0.349637
C    9.212396   3.159036  -0.112703
O    9.431812   5.652133  -1.107209
H    1.838288  -0.507373   0.136797
H    2.116815   0.702562   3.298234
H    2.322398  -2.623941   2.728349
H    5.640530   3.935317   1.699847
H    5.368032   2.726516  -1.408602
H   10.032480   1.836360  -1.475763
H   10.304185   3.055820   1.641548
H   11.224766   5.961141  -1.387607

