%chk=mol_7120.chk
# wB97XD/Def2SVP opt pop=full gfinput

C 6 H 9 N 1

1 2
C    1.806068  -0.332006  -0.011130
C    4.642263  -0.067596  -0.009090
C    5.995931  -2.592629  -0.017820
C    5.931888   2.150489   0.000000
C    4.741021   4.739112   0.006198
C    8.588843   2.150489   0.000000
N   10.763937   2.150489   0.000000
H    0.781175   1.454919   0.011301
H    1.196971  -1.399002   1.655400
H    1.196178  -1.361812  -1.700451
H    4.654188  -4.169983   0.014154
H    7.201217  -2.790672   1.653435
H    7.143543  -2.805960  -1.727266
H    2.680841   4.732800  -0.023943
H    5.363818   5.812004  -1.652943
H    5.319428   5.783072   1.699298

