%chk=mol_4381.chk
# wB97XD/Def2SVP opt pop=full gfinput

C 4 H 10 N 2 O 1

1 2
C    1.884529  -0.583321   0.151102
C    4.686275   0.030481  -0.129201
C    5.847833  -1.320276  -2.394113
C    5.092359   2.877240  -0.336163
N    4.116787   4.203072  -2.165796
N    6.542421   4.051006   1.479278
O    7.459599   6.403450   0.680112
H    1.059059   0.459922   1.737376
H    1.610991  -2.604572   0.501533
H    0.813338  -0.084112  -1.548366
H    5.657235  -0.630450   1.579339
H    4.907165  -0.800942  -4.163690
H    5.703798  -3.373331  -2.176190
H    7.851189  -0.835108  -2.589114
H    3.089721   3.065268  -3.352015
H    7.831157   2.996104   2.437444
H    6.248172   6.858251  -0.661820

