%chk=mol_5166.chk
# wB97XD/Def2SVP opt pop=full gfinput

C 4 H 10 N 2 O 1

1 2
C    2.160184   1.370562   2.584446
N    3.108656   3.799483   1.784374
C    5.526788   4.109115   0.856745
C    6.006835   6.623925  -0.539441
O    4.146588   8.451138   0.119582
N    7.221494   2.371417   1.147461
C    9.732410   2.770868   0.105711
H    0.189445   1.552977   3.181770
H    3.247097   0.648459   4.189466
H    2.240799  -0.000926   1.038216
H    1.806389   4.994092   1.023154
H    5.890201   6.279617  -2.573826
H    7.866590   7.389736  -0.076855
H    4.298125   8.670026   1.943054
H   10.801637   1.005504   0.240165
H   10.765807   4.203015   1.182194
H    9.674131   3.296381  -1.894224

