%chk=mol_2742.chk
# wB97XD/Def2SVP opt pop=full gfinput

C 6 H 8 O 1

1 2
C    2.266178  -0.973757  -0.468728
C    4.715490  -0.452722  -0.122492
C    5.715288   2.082989  -0.176784
C    8.178773   2.589189   0.143298
C    9.276949   5.200508   0.089611
C   10.442079   5.753177   2.632729
O   12.714437   5.565716   3.069728
H    1.598916  -2.913202  -0.414322
H    0.871636   0.489647  -0.816702
H    6.026242  -2.002240   0.213823
H    4.381935   3.615141  -0.500966
H    9.518796   1.055828   0.446731
H    7.859125   6.655729  -0.304492
H   10.739030   5.321790  -1.365743
H    9.103567   6.275932   4.143621

