%chk=mol_4887.chk
# wB97XD/Def2SVP opt pop=full gfinput

C 5 H 11 N 1 O 1

1 2
C    1.768973  -0.330853   0.156828
C    4.641451  -0.088439  -0.137761
O    5.814026  -1.431638   1.906016
C    5.580097  -1.287111  -2.653005
N    4.995151  -3.999398  -2.856094
C    5.392806   2.675512  -0.032163
C    7.043595   3.751711   1.558627
H    0.759727   0.537703  -1.428179
H    1.124519   0.576499   1.905713
H    1.191302  -2.314234   0.298199
H    5.099464  -0.750259   3.454760
H    7.641372  -1.091052  -2.769148
H    4.761543  -0.306854  -4.283404
H    5.558799  -4.813170  -1.193135
H    6.099072  -4.775640  -4.228621
H    4.483489   3.885957  -1.428520
H    8.061213   2.668426   2.974013
H    7.444595   5.761718   1.452028

