%chk=mol_0050.chk
# wB97XD/Def2SVP opt pop=full gfinput

C 2 H 5 N 1 O 1

1 2
C    1.870527  -0.003874   0.003175
N    4.586403   0.076987   0.007200
C    5.943302   2.262569  -0.132867
O    8.234028   2.341031   0.159493
H    1.266419  -1.806219  -0.801414
H    1.102334   1.563730  -1.101370
H    1.209595   0.143014   1.954600
H    5.593193  -1.470660   0.516009
H    4.796049   3.948507  -0.557016

