%chk=mol_2648.chk
# wB97XD/Def2SVP opt pop=full gfinput

C 5 H 6 O 2

1 2
C    2.277460  -0.329644  -1.128885
C    4.721254   0.017215  -0.575894
C    5.964977   2.425123  -0.491726
C    8.353610   2.908855   0.035999
O    8.947532   5.434267  -0.045429
C    6.522352   6.491474  -0.718115
O    4.589559   4.591241  -1.011740
H    1.467013  -2.212586  -1.155983
H    1.031790   1.241399  -1.565317
H    5.878636  -1.628812  -0.153937
H    9.872836   1.646159   0.510491
H    6.718392   7.524965  -2.502035
H    5.938143   7.813791   0.764810

