%chk=mol_7046.chk
# wB97XD/Def2SVP opt pop=full gfinput

C 6 H 9 N 1

1 2
C    7.493085  -0.036491  -5.515147
C    7.173552  -0.018500  -3.270001
C    6.771739  -0.022110  -0.517331
C    8.040747   2.223055   0.785351
C   10.875751   2.095536   0.657833
C   12.325928   3.765733  -1.137162
N   12.327307   4.262145   1.576258
H    7.775751  -0.059148  -7.510792
H    7.478704  -1.797564   0.281645
H    4.737033   0.044484  -0.132186
H    7.483939   2.215950   2.781885
H    7.344043   4.001080  -0.025530
H   11.630206   0.254187   1.140147
H   11.299674   5.110783  -2.289120
H   14.065477   3.057822  -1.948043
H   13.987923   3.688216   2.377653

