%chk=mol_0301.chk
# wB97XD/Def2SVP opt pop=full gfinput

C 4 H 8 N 2

1 2
C    2.055285   0.080446   0.112458
C    4.880672  -0.018160   0.075400
N    6.106404  -2.137998  -0.248820
C    8.816782  -1.366083  -0.181792
C    8.845525   1.515352  -0.468576
N    6.302331   2.135126   0.304567
H    1.262016  -1.821375  -0.018557
H    1.390782   1.206212  -1.487517
H    1.421641   0.965234   1.867711
H    9.629439  -1.942903   1.634519
H    9.874707  -2.285189  -1.701377
H    9.138167   2.054586  -2.446874
H   10.277124   2.418150   0.713334
H    5.544532   3.780662  -0.311559

