%chk=mol_4923.chk
# wB97XD/Def2SVP opt pop=full gfinput

C 5 H 9 N 1 O 1

1 2
C    2.239817  -0.543334   1.186257
C    4.725733   0.471298   0.138914
O    4.802342   0.060131  -2.539414
N    5.690155  -2.394377  -3.035883
C    5.821981  -2.691310  -5.450613
C    4.917011   3.280243   0.554899
C    6.708603   4.411074   1.942166
H    2.067115  -0.177899   3.215388
H    2.101848  -2.585958   0.880461
H    0.616202   0.306778   0.220342
H    6.322230  -0.496337   1.044017
H    6.488072  -4.496887  -6.239857
H    5.294333  -1.200260  -6.808608
H    3.493726   4.439231  -0.370141
H    8.182098   3.336255   2.882116
H    6.741693   6.451430   2.150641

