%chk=mol_4939.chk
# wB97XD/Def2SVP opt pop=full gfinput

C 7 H 14

1 2
C    5.141680  -2.654026  -1.057718
C    3.820214  -0.203146  -0.284876
C    1.831598  -0.709781   1.749319
C    5.708145   1.830143   0.534056
C    7.326109   1.234690   2.810004
C    6.901166   3.419422  -1.528845
C    4.933980   4.563122   0.165710
H    6.590117  -2.293164  -2.490300
H    3.780000  -3.995410  -1.850458
H    6.059558  -3.571582   0.553482
H    2.805450   0.486718  -1.959381
H    2.662076  -1.570759   3.437223
H    0.377057  -1.998952   1.039085
H    0.900908   1.045434   2.327141
H    8.600994   2.800385   3.267469
H    8.501254  -0.430725   2.466849
H    6.158334   0.888549   4.479936
H    6.388937   3.053835  -3.479288
H    8.841311   4.037438  -1.298563
H    5.544419   5.954168   1.541166
H    3.094200   4.969016  -0.641486

