%chk=mol_5103.chk
# wB97XD/Def2SVP opt pop=full gfinput

C 4 H 10 N 2 O 1

1 2
C    3.243205  -1.773716   0.477099
N    5.970136  -1.373944   0.468274
C    6.567044   1.270860  -0.129465
C    9.421910   1.676962  -0.080276
C   10.093802   4.382690  -0.701013
N   12.625771   4.875928  -0.671835
O    8.567867   6.043231  -1.218458
H    2.839427  -3.744851   0.953726
H    2.416053  -1.384924  -1.378990
H    2.315595  -0.587346   1.895263
H    6.762706  -2.525695  -0.858295
H    5.671276   2.526432   1.255988
H    5.819808   1.763606  -1.999689
H   10.348840   0.445938  -1.465955
H   10.177971   1.231213   1.797092
H   13.934519   3.581522  -0.165918
H   13.187624   6.665631  -1.039463

