%chk=mol_4391.chk
# wB97XD/Def2SVP opt pop=full gfinput

C 5 H 11 N 1 O 1

1 2
C    7.429477  -1.900384  -1.467788
C    5.723017  -0.615049   0.458599
C    5.412005   2.206595  -0.041026
C    7.822597   3.614196   0.489307
N    9.005943   4.778343  -1.301549
O   11.174026   5.915297  -0.285273
C   12.479090   7.172853  -2.271111
H    7.497035  -3.936432  -1.110932
H    9.362554  -1.174729  -1.362493
H    6.727898  -1.610028  -3.391095
H    6.486731  -0.929178   2.359625
H    3.856893  -1.513538   0.394329
H    3.969653   2.971368   1.231799
H    4.799753   2.551508  -1.987406
H    8.525613   3.598001   2.454679
H   14.154427   8.084343  -1.477747
H   11.270875   8.621346  -3.119692
H   13.077434   5.811040  -3.707699

