%chk=mol_2651.chk
# wB97XD/Def2SVP opt pop=full gfinput

C 5 H 8 O 2

1 2
C    2.028281  -0.072906   0.496053
C    4.568394   0.339017  -0.651767
C    6.002621   2.409873  -0.399205
C    5.386268   4.784843   0.967710
O    6.984693   6.611282  -0.193905
C    8.992526   5.179664  -1.284447
O    8.282821   2.596446  -1.654228
H    1.957133  -1.934626   1.396678
H    0.573400  -0.010998  -0.972623
H    1.562747   1.338455   1.935665
H    5.290836  -1.200770  -1.812644
H    5.874648   4.649104   2.971613
H    3.421878   5.379124   0.752905
H    9.500561   6.013146  -3.105406
H   10.639499   5.257199  -0.031388

