%chk=mol_6536.chk
# wB97XD/Def2SVP opt pop=full gfinput

C 4 H 2 N 2 S 1

1 2
C    1.863024  -0.082203  -0.001512
C    4.130677   0.021259  -0.000094
C    6.820513   0.137629   0.001568
N    7.953479   2.385439   0.006028
S   11.058564   1.780991   0.006727
C   10.613155  -1.432016   0.001039
N    8.211843  -2.075845  -0.001417
H   -0.147077  -0.171833  -0.002740
H   12.149786  -2.781450  -0.000416

