%chk=mol_6370.chk
# wB97XD/Def2SVP opt pop=full gfinput

C 4 H 4 N 2 O 1

1 2
O    1.962159  -0.433201   0.285670
N    4.607587  -0.329719   0.186421
C    5.430809   1.952881  -0.172721
C    3.891570   4.297218  -0.465704
C    4.891254   6.593273  -0.832481
C    8.175673   1.956963  -0.260650
N   10.373255   2.035386  -0.342003
H    1.642909  -2.231143   0.558074
H    1.857374   4.065028  -0.367060
H    6.910861   6.940643  -0.947471
H    3.665426   8.228907  -1.032074

