%chk=mol_6427.chk
# wB97XD/Def2SVP opt pop=full gfinput

C 4 H 6 N 2 S 1

1 2
C    1.746674   0.085208  -0.012548
C    4.548117   0.067010   0.001172
C    6.256108   2.039657   0.003307
C    8.787812   1.113918   0.013058
N   10.771646   2.687587   0.008995
N    9.046421  -1.380180   0.023754
S    6.210812  -2.703140   0.014513
H    1.020754   2.023349   0.004460
H    0.994960  -0.885677   1.652339
H    1.013403  -0.849432  -1.706838
H    5.726059   4.012455  -0.005480
H   10.635511   4.592375   0.058204
H   12.541451   1.959684   0.061775

