%chk=mol_3568.chk
# wB97XD/Def2SVP opt pop=full gfinput

C 6 H 8 O 1

1 2
O    1.607722  -0.009543   0.407349
C    3.931670  -0.024963   0.170888
C    5.326911   2.438314  -0.214333
C    8.197915   2.382151  -0.015099
C    9.416770  -0.150611  -0.042481
C    8.134459  -2.332319   0.006274
C    5.331787  -2.526299   0.094732
H    4.596664   3.780624   1.194193
H    4.785391   3.155767  -2.076110
H    8.781255   3.357061   1.716419
H    8.982757   3.501398  -1.578507
H   11.473510  -0.199196  -0.084584
H    9.182859  -4.103295  -0.003024
H    4.680323  -3.567274  -1.570022
H    4.793593  -3.585680   1.789060

