%chk=mol_3383.chk
# wB97XD/Def2SVP opt pop=full gfinput

C 6 H 12 O 1

1 2
C    5.680744  -0.823524   2.181424
O    5.162221   0.601897  -0.035017
C    5.714702   3.260911   0.096641
C    4.625275   4.382086  -2.353805
C    4.367441   4.525025   2.339840
C    8.561177   3.593295   0.019011
C   10.020424   4.896488   1.628906
H    5.485781  -2.825802   1.708275
H    4.306648  -0.391570   3.662459
H    7.603219  -0.508771   2.869077
H    5.430411   3.460485  -4.026950
H    4.980600   6.416603  -2.497103
H    2.579231   4.069393  -2.455794
H    5.126865   3.888244   4.157416
H    2.351689   4.047699   2.344186
H    4.544981   6.586735   2.273170
H    9.493380   2.627759  -1.543604
H    9.260357   5.907473   3.241258
H   12.053278   4.973079   1.354442

