%chk=mol_0544.chk
# wB97XD/Def2SVP opt pop=full gfinput

C 4 H 6 N 2

1 2
N   10.198720  -3.267866  -1.060004
C    8.635935  -1.810547  -0.558584
C    6.668806   0.031596   0.085831
C    8.036476   2.508044   0.248631
C    8.355707   4.165467  -2.051298
N    6.583428   4.847072  -0.049246
H    5.802347  -0.424395   1.907981
H    5.181912   0.053668  -1.353762
H    9.478942   2.546274   1.706442
H    7.518861   3.583620  -3.826922
H   10.050641   5.302534  -2.211792
H    7.308062   6.266029   1.046341

