%chk=mol_1304.chk
# wB97XD/Def2SVP opt pop=full gfinput

C 5 H 12 N 2

1 2
C    2.144783  -1.531812   0.026399
C    4.744195  -0.454895  -0.232323
C    5.445359   1.988086   0.007880
C    3.651386   4.132019   0.535718
N    3.523564   4.616488   3.248590
C    8.182930   2.737419  -0.252826
N    8.654379   3.792775  -2.755806
H    2.182067  -3.106483   1.367349
H    1.501255  -2.257051  -1.800002
H    0.754757  -0.170718   0.714071
H    6.197905  -1.854710  -0.640466
H    1.755083   3.735989  -0.189653
H    4.274372   5.850781  -0.436961
H    2.798949   3.055290   4.108397
H    2.259470   6.033725   3.558883
H    9.432587   1.110157   0.039495
H    8.685918   4.127029   1.197822
H    8.339721   2.416487  -4.063931
H   10.519501   4.242322  -2.892037

