%chk=mol_3231.chk
# wB97XD/Def2SVP opt pop=full gfinput

C 7 H 4

1 2
C    1.889726   0.000000   0.000000
C    4.618491   0.000000   0.000000
C    6.867567   0.000000   0.000000
C    9.990774  -0.000000  -0.000000
C   12.312076  -0.000000  -0.000019
C   15.088065  -0.000000  -0.000000
C   17.394495   0.000000   0.000000
H    0.771915   1.781974   0.161893
H    0.934885  -0.790038   1.684653
H    0.713372  -0.822012  -1.535591
H   19.349606   0.000000   0.000000

