%chk=mol_2172.chk
# wB97XD/Def2SVP opt pop=full gfinput

C 6 H 10 O 1

1 2
C   -2.364614  -1.446642  -1.000138
C   -2.369546   1.444318  -0.988402
C   -0.002853   2.043153   0.551479
C    2.378296   1.449779  -0.969354
C    2.383323  -1.440954  -0.977045
C    0.002986  -2.050107   0.537400
O   -0.007956  -0.009184   2.356980
H   -2.320867  -2.250078  -2.904112
H   -4.058886  -2.143308  -0.034431
H   -4.064839   2.126943  -0.014702
H   -2.331431   2.263287  -2.885933
H   -0.008617   3.897144   1.457621
H    4.063894   2.140247   0.015930
H    2.351386   2.266254  -2.868434
H    4.069733  -2.130099   0.006992
H    2.361893  -2.247130  -2.880094
H    0.000775  -3.910146   1.431600

