%chk=mol_2294.chk
# wB97XD/Def2SVP opt pop=full gfinput

C 6 H 12 O 1

1 2
C    1.785810   0.033864  -0.048094
C    4.650200  -0.029631   0.051193
C    5.933154   1.914878   1.818843
C    7.952667  -0.095393   2.410176
C    6.019987  -2.162149   1.599540
C    4.591543  -3.332589   3.810217
O    7.054423  -4.183495   0.081579
H    1.062196  -1.594343  -1.096003
H    1.135820   1.746372  -1.007375
H    0.943635   0.012038   1.838968
H    5.397360   0.100704  -1.886570
H    4.799961   2.458609   3.465247
H    6.628800   3.630032   0.900738
H    9.621503   0.020617   1.188222
H    8.585688  -0.148381   4.376927
H    3.793077  -1.897342   5.068775
H    5.850290  -4.523343   4.942579
H    3.037829  -4.520830   3.134319
H    8.012325  -3.362239  -1.253947

