%chk=mol_4610.chk
# wB97XD/Def2SVP opt pop=full gfinput

C 4 H 9 N 1 O 2

1 2
C    1.347488  -0.017385  -0.805193
C    4.191696   0.411582  -0.601027
C    5.609047  -0.215637  -3.040966
O    4.508358   1.002764  -5.182706
C    4.740662   3.108373   0.224008
N    4.190619   4.949571  -1.491296
O    5.551108   3.640009   2.328710
H    0.421333   0.391532   1.000553
H    0.939496  -1.983381  -1.302286
H    0.472054   1.202433  -2.228800
H    4.940103  -0.818951   0.892839
H    5.602036  -2.256390  -3.387995
H    7.582545   0.395633  -2.920931
H    3.160416  -0.090877  -5.798360
H    4.061380   4.485700  -3.351845
H    4.703660   6.734417  -1.045472

