%chk=mol_5373.chk
# wB97XD/Def2SVP opt pop=full gfinput

C 4 H 9 N 1 O 2

1 2
C    2.614606  -0.537344  -0.349656
O    5.202302  -0.092030   0.222704
C    5.898194   2.477488  -0.236594
C    8.677150   2.810155   0.397768
C   10.253597   1.495265  -1.560819
N   11.764981   2.762874  -3.006365
O   12.994248   1.078712  -4.635328
H    2.201720  -2.527565   0.019445
H    2.235773  -0.142882  -2.343506
H    1.398681   0.625027   0.852248
H    4.761297   3.705753   0.983716
H    5.524501   2.958007  -2.217121
H    9.121311   1.960251   2.230500
H    9.169537   4.818575   0.439456
H   10.064871  -0.580410  -1.706649
H   14.111228   2.193707  -5.587164

