%chk=mol_4009.chk
# wB97XD/Def2SVP opt pop=full gfinput

C 6 H 9 N 1

1 2
C   -2.530684   1.765080   1.068867
C   -2.505134  -0.704017  -0.321518
C   -0.720779  -2.758509   0.376377
C    1.649485  -1.779177  -0.752621
C    2.984237   0.549268   0.236783
N    1.230401   0.588820  -1.881619
C   -1.188260   1.477161  -1.420450
H   -4.274580   2.843036   1.073062
H   -1.473363   1.949328   2.806489
H   -4.233478  -1.370259  -1.183328
H   -0.569015  -3.017571   2.422723
H   -1.275546  -4.550706  -0.495751
H    2.733886  -3.172264  -1.779801
H    2.450257   1.332616   2.043437
H    4.958188   0.792721  -0.246212
H   -2.076148   2.430074  -3.008463

