%chk=mol_3639.chk
# wB97XD/Def2SVP opt pop=full gfinput

C 6 H 8 O 1

1 2
O    1.796279   0.998947  -1.446680
C    3.643052   0.631471  -0.089365
C    6.023143   2.242179  -0.083601
C    7.154975   2.480058   2.576868
C    6.431230   5.108572   3.547337
C    5.729442   6.490510   1.195932
C    5.499386   4.931033  -0.777641
H    3.725822  -1.080130   1.100066
H    7.388357   1.361472  -1.364118
H    9.222619   2.346908   2.457551
H    6.529760   1.001706   3.883690
H    8.018769   6.005644   4.521566
H    4.815967   5.021059   4.837283
H    5.373739   8.502690   1.129470
H    4.926648   5.509156  -2.654744

