%chk=mol_4825.chk
# wB97XD/Def2SVP opt pop=full gfinput

C 5 H 9 N 1 O 1

1 2
C    1.835585  -0.218679  -0.205961
C    4.647573  -0.474964   0.167845
O    5.625733  -2.561902   0.475474
C    6.161320   1.957775   0.084735
C    8.942845   1.554149   0.431689
C   10.700158   1.487517  -1.807618
N   10.658509   3.658000  -0.101138
H    1.107965   1.305857   0.983678
H    0.897525  -1.976502   0.343552
H    1.438271   0.179864  -2.192441
H    5.467639   3.176290   1.608195
H    5.765668   2.888314  -1.723317
H    9.393205   0.417025   2.075864
H    9.943645   1.810547  -3.681092
H   12.346733   0.275239  -1.720237
H   12.180040   3.616955   1.089465

