%chk=mol_6375.chk
# wB97XD/Def2SVP opt pop=full gfinput

C 4 H 6 N 2 O 1

1 2
O    1.818521   4.486285  -0.167638
N    4.442406   4.814229  -0.180053
C    5.506794   2.626379   0.051608
C    8.332029   2.320999   0.106146
C    9.751894   4.810260  -0.139991
C   12.491241   4.383447  -0.071526
N   14.653484   4.020884  -0.016346
H    1.195044   6.212834  -0.348522
H    4.379044   0.876512   0.221268
H    8.843257   1.025365  -1.429446
H    8.816442   1.365063   1.879616
H    9.216837   6.093743   1.398473
H    9.244692   5.752969  -1.911477

