%chk=mol_0228.chk
# wB97XD/Def2SVP opt pop=full gfinput

C 5 H 9 N 1

1 2
C    1.369503   2.531987  -1.063349
C   -0.865476   1.833601   0.536947
C   -2.796171  -0.006576  -0.394934
C   -1.560517  -2.550866   0.099929
C    1.269216  -2.014014  -0.042368
N    1.614091   0.592580   0.888096
H    1.427121   1.960213  -3.026018
H    2.311948   4.305269  -0.664938
H   -1.480619   3.060771   2.049994
H   -4.593773   0.169414   0.612763
H   -3.152025   0.270665  -2.415977
H   -2.047915  -3.197057   2.008476
H   -2.169500  -3.998528  -1.242703
H    2.318543  -3.339656   1.150616
H    1.975935  -2.234148  -1.979035

