%chk=mol_4250.chk
# wB97XD/Def2SVP opt pop=full gfinput

C 4 H 2 N 2 O 1

1 2
C    1.815970  -0.103179  -0.002532
C    4.081865   0.018633   0.000510
C    6.743015   0.168639   0.004195
C    8.414912   2.124600   0.001209
N   10.801977   1.145231   0.007823
N   10.653804  -1.367122   0.014853
O    8.086800  -2.012464   0.012642
H   -0.194094  -0.218471  -0.005140
H    8.061950   4.131735  -0.005140

