%chk=mol_4418.chk
# wB97XD/Def2SVP opt pop=full gfinput

C 5 H 7 N 1 O 1

1 2
C    2.151359  -1.097232  -0.341190
C    4.813529  -0.033769  -0.067123
C    4.868029   2.859099   0.086360
C    7.489249   3.836900   0.681473
O    9.266102   2.510029   1.364722
C    4.044600   4.041122  -2.286115
N    3.390773   5.013463  -4.135949
H    2.205972  -3.164913  -0.300618
H    1.287395  -0.525854  -2.131025
H    0.934602  -0.459185   1.205230
H    5.977336  -0.699747  -1.649788
H    5.650073  -0.834144   1.653510
H    3.644677   3.494463   1.633838
H    7.710215   5.912934   0.618318

