%chk=mol_0881.chk
# wB97XD/Def2SVP opt pop=full gfinput

C 6 H 10

1 2
C    1.693818   0.103066   0.004649
C    4.576973   0.095223  -0.205867
C    5.391370  -1.313700  -2.548541
C    6.869967  -3.370402  -2.536145
C    5.568796   2.769639  -0.267831
C    7.180638   3.733532   1.431732
H    1.082246   1.093566   1.716722
H    0.957449  -1.829538   0.101100
H    0.806271   1.037044  -1.616944
H    5.321563  -0.874376   1.472531
H    4.719988  -0.594716  -4.354798
H    7.598532  -4.163596  -0.791153
H    7.391267  -4.296557  -4.290302
H    4.917237   3.975020  -1.800531
H    7.897033   2.614606   2.994895
H    7.827246   5.674772   1.280138

