%chk=mol_5454.chk
# wB97XD/Def2SVP opt pop=full gfinput

C 4 H 9 N 1 O 2

1 2
C    3.032954  -0.727015   0.802415
O    5.682973  -0.562212   0.381819
N    6.354318   1.996004   0.249576
C    8.759429   2.272339  -0.180752
C   10.628613   0.129749  -0.407557
C    9.803881   4.947020  -0.229828
O   10.591688   5.652549   2.231521
H    2.506816  -2.722510   0.878628
H    2.003658   0.174724  -0.747613
H    2.537921   0.163594   2.601397
H    9.781260  -1.522250  -1.309694
H   11.296310  -0.379627   1.479882
H   12.244367   0.720571  -1.551352
H    8.353837   6.270622  -0.878968
H   11.420824   5.058041  -1.510534
H    9.086502   5.571498   3.291997

