%chk=mol_7048.chk
# wB97XD/Def2SVP opt pop=full gfinput

C 6 H 5 N 1

1 2
C    1.625920   0.004120  -0.053763
C    3.892231  -0.004838  -0.062078
C    6.789635  -0.015911  -0.059696
C    9.055530  -0.026399  -0.036680
C   11.760181  -0.043067   0.027212
C   13.179574  -1.467542  -1.989334
N   13.124885   1.284069  -1.974121
H   -0.387016   0.014815  -0.043237
H   12.613847   0.046185   1.890293
H   12.128829  -2.372438  -3.495143
H   14.952231  -2.359285  -1.492978
H   14.772197   2.015412  -1.289020

