%chk=mol_2872.chk
# wB97XD/Def2SVP opt pop=full gfinput

C 6 H 12 O 1

1 2
C    3.387750  -1.006166  -2.054435
C    3.253334   0.472394   0.409655
C    4.318950   3.116423   0.190673
C    2.849820   5.158726   0.555863
C    7.093068   3.365470  -0.417176
O    8.508114   2.048085   1.456204
C   11.138783   2.110881   0.929443
H    2.429980  -2.828145  -1.842162
H    5.346356  -1.392199  -2.600320
H    2.472669   0.021883  -3.600627
H    4.260406  -0.561797   1.894356
H    1.270841   0.548172   1.010191
H    0.857633   4.979466   1.014405
H    3.601894   7.063626   0.430139
H    7.677731   5.353632  -0.433446
H    7.477552   2.569215  -2.289895
H   12.131588   1.119266   2.446213
H   11.821768   4.062004   0.859107
H   11.540198   1.151051  -0.858238

