%chk=mol_0094.chk
# wB97XD/Def2SVP opt pop=full gfinput

C 3 H 7 N 1 O 1

1 2
C    1.792934  -0.403324   0.163631
C    4.609552   0.119166   0.011811
N    5.155910   2.786496   0.257022
C    5.075256   4.395843  -1.771429
O    4.611366   3.802148  -3.953534
H    1.427027  -2.432852   0.012623
H    0.771481   0.554049  -1.359923
H    1.014216   0.265488   1.960477
H    5.360888  -0.567409  -1.790345
H    5.600506  -0.855025   1.543679
H    5.448591   3.518481   1.998329
H    5.486952   6.361045  -1.214395

