%chk=mol_2924.chk
# wB97XD/Def2SVP opt pop=full gfinput

C 6 H 12 O 1

1 2
C    2.130005  -0.928649   0.280039
C    4.993374  -1.409679   0.188236
C    5.785434  -2.700589   2.662359
C    5.571971  -3.074811  -2.116436
O    6.111204   1.062971  -0.047073
C    8.670971   1.236694  -0.278716
C    9.790841   3.422974  -0.830081
H    1.490276   0.039269  -1.436249
H    1.642455   0.311673   1.866256
H    1.059929  -2.689175   0.474737
H    5.466033  -1.447625   4.279663
H    7.798522  -3.177178   2.670126
H    4.729682  -4.454028   2.969119
H    5.127281  -2.076771  -3.875620
H    4.484509  -4.835280  -2.066321
H    7.575761  -3.582184  -2.209940
H    9.736833  -0.476797   0.028421
H    8.683235   5.124522  -1.120891
H   11.828495   3.555123  -0.998134

