%chk=mol_6214.chk
# wB97XD/Def2SVP opt pop=full gfinput

C 5 H 8 N 2

1 2
C    2.089848  -0.216582   0.455594
C    4.562026  -0.070751  -0.034336
C    6.038355   2.374422  -0.208267
C    8.598688   1.600711  -1.356918
C    8.536857  -1.249071  -1.203793
N   10.466759  -2.616553  -1.744255
N    6.191045  -2.016867  -0.494239
H    1.115864  -2.017887   0.539252
H    0.974286   1.475082   0.774939
H    6.327691   3.163175   1.684785
H    5.092718   3.789279  -1.383015
H    8.737885   2.170521  -3.341225
H   10.198549   2.373118  -0.303528
H   10.014528  -4.482695  -1.528014
H    5.613847  -3.831930  -0.453874

