%chk=mol_5042.chk
# wB97XD/Def2SVP opt pop=full gfinput

C 4 H 8 N 2 O 1

1 2
C    2.160807  -0.011301   0.535208
N    4.815117   0.155147  -0.155884
C    5.698205   2.355865  -0.580184
N    4.613445   4.690319  -0.430593
C    6.537016   6.607295  -0.389114
C    8.724337   5.215266  -1.613146
O    8.186785   2.585504  -1.228681
H    1.581984  -1.996590   0.519505
H    0.943767   0.994771  -0.802680
H    1.845336   0.717491   2.445495
H    3.148624   4.858032   0.783291
H    5.999484   8.308710  -1.428595
H    6.987886   7.118882   1.564107
H    8.835679   5.568910  -3.649741
H   10.537377   5.696750  -0.742625

