%chk=mol_2675.chk
# wB97XD/Def2SVP opt pop=full gfinput

C 6 H 12 O 1

1 2
C    4.042540  -0.970639  -2.697603
C    4.656890   0.007049  -0.062985
C    6.201250   2.448972  -0.165200
O    8.590940   1.950197  -1.396092
C    4.751962   4.823337  -1.116337
C    5.986898   6.329222   1.045869
C    6.413277   3.809178   2.435479
H    2.916622  -2.700608  -2.571520
H    5.762890  -1.404596  -3.759686
H    2.962373   0.421692  -3.779509
H    5.707596  -1.445470   0.976497
H    2.881643   0.311389   0.962608
H    9.497367   3.547715  -1.396697
H    2.690403   4.695403  -0.965045
H    5.237848   5.473667  -3.016645
H    7.741339   7.283949   0.496601
H    4.760220   7.685535   2.006058
H    8.236976   3.642730   3.392040
H    4.913193   3.343115   3.784328

