%chk=mol_2537.chk
# wB97XD/Def2SVP opt pop=full gfinput

C 6 H 12 O 1

1 2
C    1.887799   0.119109   0.263239
C    4.708706  -0.187707  -0.102971
O    6.100735   1.804481   1.182364
C    7.876530  -0.041895   2.187490
C   10.409122   0.176104   0.856613
C    6.042343  -2.216082   1.509891
C    7.009202  -4.530411   0.131468
H    0.873753  -1.498591  -0.532676
H    1.210766   1.824757  -0.691451
H    1.389402   0.268341   2.265649
H    5.219027  -0.217583  -2.113300
H    8.093186   0.200727   4.235027
H   10.205711   0.118580  -1.201734
H   11.666375  -1.364496   1.425024
H   11.332952   1.960723   1.349605
H    4.924399  -2.795774   3.161285
H    8.063613  -4.036171  -1.577354
H    5.432377  -5.745863  -0.431821
H    8.254249  -5.637922   1.357220

