%chk=mol_4382.chk
# wB97XD/Def2SVP opt pop=full gfinput

C 6 H 9 N 1

1 2
C   -0.893822  -2.995499  -0.521867
C    1.535629  -2.293976   0.907447
C    2.251325   0.448205   0.756306
N    2.011122   1.858395  -1.595609
C    0.179089   2.374479   0.415759
C   -2.390390   1.410964   0.062153
C   -2.943003  -1.032301  -0.359369
H   -1.604926  -4.792610   0.223574
H   -0.462605  -3.311764  -2.524277
H    3.102552  -3.464869   0.224254
H    1.280762  -2.765879   2.912219
H    3.847501   0.913153   1.947420
H    3.312085   3.276048  -1.693308
H    0.351470   4.176276   1.376514
H   -3.918763   2.780732   0.109245
H   -4.881144  -1.618040  -0.682550

