%chk=mol_3142.chk
# wB97XD/Def2SVP opt pop=full gfinput

C 7 H 8

1 2
C    1.889726   0.000000   0.000000
C    4.618491   0.000000   0.000000
C    6.867567   0.000000   0.000000
C    9.524522   0.000000   0.000000
C   10.847576   1.989636   0.839964
C   13.576171   2.054718   0.867460
C   14.897127   4.040839   1.705950
H    1.145174   1.929184   0.022488
H    1.145061  -0.983962   1.659482
H    1.145023  -0.945071  -1.681913
H   10.473958  -1.675734  -0.707457
H    9.854676   3.649420   1.540694
H   14.588251   0.404893   0.170945
H   13.988338   5.735111   2.421231
H   16.948387   4.008166   1.692155

