%chk=mol_5633.chk
# wB97XD/Def2SVP opt pop=full gfinput

C 4 H 8 N 2 O 1

1 2
N    4.081884  -0.853722  -2.635903
C    3.995202   0.298312  -0.125969
C    5.975465   2.376274   0.102631
C    5.457567   4.898623  -1.287017
C    5.982041   6.087696   1.311829
O    6.570653   8.117167   2.164247
N    5.710733   3.810841   2.482666
H    2.679821  -2.171069  -2.771548
H    5.731237  -1.828877  -2.848706
H    4.331573  -1.166093   1.298979
H    2.094308   1.054033   0.196267
H    7.918104   1.679286  -0.114820
H    3.528157   5.209484  -1.960610
H    6.824670   5.397832  -2.749041
H    6.654255   3.568748   4.126462

