%chk=mol_2600.chk
# wB97XD/Def2SVP opt pop=full gfinput

C 6 H 8 O 1

1 2
C    2.195994  -0.209892  -1.111253
C    4.651580   0.033221  -0.550232
C    6.019666   2.378938  -0.546074
C    8.456997   2.684337  -0.010677
C    9.113148   5.382734  -0.318608
C    6.504116   6.558880  -0.647061
O    4.733443   4.570038  -1.216379
H    1.289360  -2.047216  -1.074517
H    1.039916   1.408394  -1.619250
H    5.716724  -1.652906  -0.055482
H    9.771623   1.211749   0.500003
H   10.096315   6.167461   1.320560
H   10.289086   5.660712  -1.997648
H    6.476715   7.952724  -2.175963
H    5.880866   7.496298   1.093150

