%chk=mol_4066.chk
# wB97XD/Def2SVP opt pop=full gfinput

C 4 H 5 N 1 O 2

1 2
C    1.828461  -0.017348  -0.014645
C    4.618547   0.078386  -0.001776
C    6.216916   2.010725   0.008749
O    8.765060   1.316194   0.019937
C    8.588068  -1.303080   0.015571
O   10.387843  -2.744544   0.022544
N    6.088660  -2.007532   0.002419
H    1.011816   1.884019  -0.008409
H    1.125729  -1.017485   1.654474
H    1.140733  -0.998985  -1.700943
H    5.865918   4.012947   0.010242
H    5.526504  -3.827773  -0.002419

