%chk=mol_2005.chk
# wB97XD/Def2SVP opt pop=full gfinput

C 5 H 8 N 2

1 2
N    4.382917  -0.851152  -1.713112
C    4.667850  -0.050588   0.918936
C    6.555894   2.052129   1.139713
N    7.640975   3.225158  -1.125861
C    5.840293   4.706930   0.357064
C    6.785062   6.785742   1.808865
C    7.575251   8.532719   3.023978
H    3.096373  -2.284055  -1.787265
H    6.054437  -1.632516  -2.282260
H    5.289835  -1.666379   2.053509
H    2.836914   0.564310   1.662014
H    7.817154   1.821261   2.736399
H    6.731677   2.483365  -2.668407
H    4.009942   4.988367  -0.526591
H    8.293989  10.080876   4.088933

