%chk=mol_1730.chk
# wB97XD/Def2SVP opt pop=full gfinput

C 6 H 11 N 1

1 2
C    2.158294  -0.862263   0.919541
N    4.858316  -0.308800   0.912946
C    5.376044   2.403127   0.668566
C    4.564652   3.821933   2.998447
C    2.971727   5.792937   3.011354
C    8.184971   2.710529   0.294136
C    9.273661   3.822425  -1.703796
H    1.886646  -2.912503   0.905047
H    1.211560  -0.091141  -0.750165
H    1.232290  -0.142825   2.622486
H    5.649525  -1.187598  -0.608019
H    4.389040   3.140385  -1.002537
H    5.336227   3.161380   4.786449
H    2.142477   6.518970   1.282028
H    2.465677   6.715161   4.772333
H    9.391845   1.958399   1.781672
H    8.165998   4.609666  -3.239633
H   11.315983   3.970711  -1.831504

