%chk=mol_2904.chk
# wB97XD/Def2SVP opt pop=full gfinput

C 6 H 6 O 1

1 2
C    1.914330  -0.567088   0.262218
C    4.694004  -0.057693   0.254678
C    5.931888   2.150489   0.000000
C    4.572797   4.610762  -0.258439
O    5.647465   6.635584  -0.594942
C    8.588843   2.150489   0.000000
C   10.837919   2.150489   0.000000
H    1.502748  -2.142401  -1.016710
H    0.766454   1.029561  -0.361127
H    1.304384  -1.112009   2.162300
H    5.828615  -1.765836   0.470088
H    2.502167   4.538574  -0.114952
H   12.850534   2.177626  -0.004214

