%chk=mol_4209.chk
# wB97XD/Def2SVP opt pop=full gfinput

C 4 H 6 N 2 O 1

1 2
C    1.806049  -0.008164   0.120829
C    4.665299  -0.003383   0.207322
O    5.528072  -0.001493   2.724305
C    5.768086   2.117022  -1.319917
N    7.195756   1.352005  -3.150400
N    7.199630  -1.352326  -3.149002
C    5.774058  -2.121142  -1.317952
H    1.087953   0.004025  -1.821072
H    1.039179   1.647803   1.099159
H    1.046039  -1.680874   1.075405
H    7.371784   0.002022   2.673377
H    5.389348   4.105392  -0.862131
H    5.402122  -4.109342  -0.859221

