%chk=mol_2324.chk
# wB97XD/Def2SVP opt pop=full gfinput

C 6 H 8 O 1

1 2
C    1.816367   0.270514  -0.280624
C    4.262882  -0.014230   0.289676
C    5.570611  -2.550733   0.254130
C    8.388362  -2.355109   0.053593
C    9.546972  -0.109056  -0.081428
C    8.084437   2.314631  -0.004252
O    5.625053   2.065792   1.105811
H    0.916272   2.109936  -0.154334
H    0.649612  -1.322865  -0.844103
H    4.877723  -3.680903  -1.339400
H    5.106966  -3.566782   1.998121
H    9.474236  -4.094281   0.003024
H   11.585684   0.002211  -0.269588
H    9.116946   3.687971   1.149029
H    7.905726   3.107598  -1.909927

