%chk=mol_5549.chk
# wB97XD/Def2SVP opt pop=full gfinput

C 4 H 4 N 2 O 1

1 2
N    1.873021   0.140841  -0.343269
C    4.431993  -0.092030  -0.189596
C    5.965960  -2.081080  -0.087759
C    8.582664  -1.150427   0.079406
O   10.417229  -2.535578   0.210402
N    8.546797   1.441124   0.078046
C    6.192122   2.048104  -0.086304
H    0.901588  -1.442560   0.154353
H    1.159441   1.737414   0.456709
H    5.505490  -4.057242  -0.117503
H    5.462631   3.992670  -0.145944

