%chk=mol_1164.chk
# wB97XD/Def2SVP opt pop=full gfinput

C 6 H 12

1 2
C    2.699776  -1.410869   0.494844
C    5.517056  -0.908656   0.233268
C    6.061051   1.905638  -0.128312
C    8.848265   2.388311  -0.371218
C    9.939827   3.373275  -2.438465
C   12.710979   3.853681  -2.680614
H    2.351953  -3.437336   0.719853
H    1.672011  -0.765547  -1.180380
H    1.924610  -0.438927   2.148260
H    6.249475  -1.984836  -1.379802
H    6.488885  -1.611502   1.923930
H    5.348681   2.975241   1.497514
H    5.047874   2.603192  -1.796600
H   10.005439   1.906129   1.258992
H    8.787377   3.864887  -4.068051
H   13.754315   3.292300  -0.984812
H   13.050827   5.866163  -3.011751
H   13.470799   2.792618  -4.284841

