%chk=mol_6591.chk
# wB97XD/Def2SVP opt pop=full gfinput

C 6 H 11 N 1

1 2
C    1.913348   0.064496   0.033278
C    4.719591  -0.001909  -0.036680
C    6.202554  -2.052356  -0.143714
C    8.944470  -1.393975  -0.110266
N   10.022087  -2.054340   2.331657
C    8.899873   1.463083  -0.606583
C    6.250062   2.372476   0.106089
H    1.105339  -1.837759  -0.056106
H    1.178943   1.143795  -1.570835
H    1.256743   0.955710   1.780198
H    5.531739  -3.982447  -0.192790
H    9.967285  -2.376085  -1.616453
H    9.043020  -1.138692   3.715050
H   11.821692  -1.381711   2.430018
H    9.224037   1.809507  -2.627910
H   10.374294   2.501223   0.411034
H    5.586711   3.815338  -1.218514
H    6.207202   3.145128   2.025711

