%chk=mol_4412.chk
# wB97XD/Def2SVP opt pop=full gfinput

C 5 H 7 N 1 O 1

1 2
C    2.124355  -0.117938   1.176052
C    4.762110   0.000000   0.000000
C    4.682269  -1.035230  -2.706088
C    7.286066  -1.458944  -3.788863
O    9.205876  -1.642626  -2.502186
C    5.672996   2.572238   0.000000
N    6.399047   4.622572   0.000000
H    2.143252   0.607641   3.115856
H    1.432658  -2.067889   1.237506
H    0.760653   1.010682   0.099437
H    6.019836  -1.174162   1.156475
H    3.684116   0.269380  -3.970182
H    3.704506  -2.859477  -2.776159
H    7.359406  -1.736885  -5.854466

