%chk=mol_1514.chk
# wB97XD/Def2SVP opt pop=full gfinput

C 6 H 13 N 1

1 2
C    5.197522  -3.935771   0.930690
C    5.503298  -1.577109  -0.714978
N    2.987903  -0.607264  -1.385415
C    7.031709   0.518352   0.623647
C    9.768883  -0.155770   1.122762
C   11.562384   0.134624  -1.060873
C   10.570920  -0.896410   3.415416
H    7.025151  -4.832124   1.301058
H    4.006994  -5.349588  -0.005594
H    4.325791  -3.479307   2.753879
H    6.454020  -2.114755  -2.474653
H    2.028281  -0.136741   0.218188
H    1.962764  -2.007910  -2.222734
H    6.097560   1.018865   2.408796
H    6.992743   2.249398  -0.522509
H   10.954081  -1.015539  -2.667273
H   13.486163  -0.448281  -0.566899
H   11.640694   2.114093  -1.660295
H    9.275759  -1.079676   4.995756
H   12.540166  -1.348168   3.772101

