%chk=mol_7007.chk
# wB97XD/Def2SVP opt pop=full gfinput

C 6 H 11 N 1

1 2
C    4.386357  -1.193400  -2.738364
C    4.537591   0.335974  -0.339357
C    2.996614  -0.190428   1.610614
C    6.523467   2.291576  -0.240128
C    6.599868   4.329703  -2.230085
C    5.818599   4.983453   0.410127
N    7.500890   6.512941   1.982984
H    6.247869  -1.955734  -3.222096
H    3.729242  -0.017499  -4.307631
H    3.084090  -2.792392  -2.563243
H    1.580416  -1.670423   1.503013
H    3.120013   0.856783   3.370667
H    8.332615   1.588542   0.426738
H    5.146707   4.391232  -3.672456
H    8.434566   4.951838  -2.894172
H    3.823577   5.414179   0.668094
H    9.347908   6.051508   1.693516
H    7.160002   6.173678   3.849013

