%chk=mol_3598.chk
# wB97XD/Def2SVP opt pop=full gfinput

C 7 H 14

1 2
C    5.281406  -2.515566   0.054764
C    4.332878  -0.315660   1.646802
C    5.483399   2.251798   0.891252
C    4.205132   4.375453   2.391354
C    8.388872   2.393792   1.130529
C    9.405809   1.946134   3.746949
C   10.674647   3.675990   5.090903
H    4.265944  -4.245345   0.561967
H    7.295496  -2.864447   0.357650
H    4.970263  -2.160789  -1.958947
H    4.687107  -0.716509   3.648041
H    2.272301  -0.214919   1.432356
H    5.031641   2.572654  -1.110063
H    4.468976   4.141448   4.430123
H    2.168688   4.404914   2.019494
H    4.965539   6.222075   1.847755
H    9.014599   4.248312   0.439701
H    9.260849   1.010739  -0.142334
H    9.112940   0.082127   4.562271
H   11.037078   5.558138   4.359882
H   11.380101   3.236137   6.966211

