%chk=mol_5303.chk
# wB97XD/Def2SVP opt pop=full gfinput

C 4 H 5 N 1 O 2

1 2
C    6.265878  -1.982417   0.968598
O    4.645533   0.094883   0.465629
C    5.772433   2.324722   0.253053
N    4.625180   4.475363  -0.207114
C    6.571239   6.187266  -0.246874
C    8.825569   4.978143   0.195624
O    8.334429   2.470666   0.523303
H    5.101694  -3.686497   1.096438
H    7.245172  -1.742101   2.776518
H    7.627048  -2.253857  -0.567277
H    6.248021   8.174994  -0.588007
H   10.778695   5.554831   0.330419

