%chk=mol_2008.chk
# wB97XD/Def2SVP opt pop=full gfinput

C 5 H 12 N 2

1 2
N    3.637175  -1.069604  -2.431473
C    4.189958   0.006727   0.067255
C    5.781863   2.401747  -0.151688
N    8.071568   2.069534  -1.716041
C    4.450494   4.886435  -0.964233
C    6.008233   6.308170   1.047815
C    6.532613   3.745324   2.337251
H    2.581725  -2.662303  -2.192989
H    5.313494  -1.672143  -3.172661
H    5.188432  -1.415348   1.196480
H    2.403769   0.410260   1.034965
H    9.222865   3.611890  -1.789193
H    7.613480   1.698713  -3.553819
H    2.416752   4.913212  -0.562364
H    4.723899   5.517906  -2.914751
H    7.703544   7.230905   0.297632
H    4.956563   7.676370   2.184070
H    8.464972   3.468025   3.020935
H    5.237017   3.366528   3.911487

