%chk=mol_4332.chk
# wB97XD/Def2SVP opt pop=full gfinput

C 5 H 7 N 1 O 1

1 2
C    1.889726   0.000000   0.000000
C    4.618491   0.000000   0.000000
C    6.867567   0.000000   0.000000
C    9.587979  -0.061152  -0.001493
C   10.949244  -2.533348  -0.010866
N   10.553837   2.186224   0.002476
O   13.199850   2.071650  -0.001965
H    1.145079   1.929146   0.022072
H    1.145098  -0.983716   1.659652
H    1.145098  -0.945468  -1.681724
H    9.616495  -4.112630   0.003950
H   12.157685  -2.663928   1.660446
H   12.125144  -2.667537  -1.704968
H   13.668861   3.855967   0.001644

