%chk=mol_5494.chk
# wB97XD/Def2SVP opt pop=full gfinput

C 4 H 8 N 2 O 1

1 2
N    1.660672  -0.012170  -0.446996
C    4.353343  -0.476627  -0.049889
C    5.879902  -1.605908  -2.149979
C    6.264782   1.120834  -1.445565
N    8.541581   1.924440  -0.258212
C    8.634234   3.735648   1.577506
O   10.601704   4.460585   2.549184
H    0.998021   1.302494   0.797729
H    0.638898  -1.613278  -0.114839
H    4.848905  -1.074706   1.854785
H    4.947832  -2.002940  -3.930177
H    7.327696  -2.963374  -1.647407
H    5.534290   2.506155  -2.778313
H   10.230486   1.237544  -0.842383
H    6.762536   4.478594   2.109747

