%chk=mol_1231.chk
# wB97XD/Def2SVP opt pop=full gfinput

C 5 H 10 N 2

1 2
C    6.480797  -0.708496  -2.876163
C    5.606213   0.302829  -0.328907
C    6.190932   3.068027   0.000737
C    4.369406   4.825472   0.207095
C    8.886456   3.935922   0.131336
N    9.595103   6.314879  -0.551498
N   10.725387   2.490735   0.854988
H    5.950124  -2.699530  -3.071447
H    8.535666  -0.582281  -3.086868
H    5.608991   0.338639  -4.436226
H    6.459726  -0.798674   1.201431
H    3.563872  -0.016970  -0.175650
H    2.384589   4.313659   0.139764
H    4.793064   6.810384   0.508110
H    8.644420   7.058505  -2.034555
H   11.498719   6.415375  -0.757119
H   10.081387   0.751450   1.388325

