%chk=mol_0626.chk
# wB97XD/Def2SVP opt pop=full gfinput

C 6 H 4

1 2
C    1.839573  -0.010299  -0.000000
C    4.372902   0.000000   0.000000
C    5.701379  -2.300987   0.000000
C    6.825918  -4.248747   0.000000
C    5.682690   2.354202   0.000000
C    6.798554   4.330591   0.000000
H    0.762089   1.735090  -0.000000
H    0.775147  -1.763814  -0.000000
H    7.837696  -5.988429  -0.000000
H    7.797747   6.076735   0.000000

