%chk=mol_3272.chk
# wB97XD/Def2SVP opt pop=full gfinput

C 5 H 4 O 2

1 2
C    1.501236  -0.666374  -0.125686
C    3.994711  -0.327168  -0.285311
O    5.266969   1.293593   1.361094
C    7.826887   1.467316   1.035967
O    9.132196   0.362317  -0.518654
C    8.950196   3.202613   2.818602
C    9.887406   4.648273   4.298276
H    0.529331  -1.927445  -1.416803
H    0.386166   0.306721   1.293140
H    5.163677  -1.266570  -1.678247
H   10.725651   5.929224   5.605419

