%chk=mol_5674.chk
# wB97XD/Def2SVP opt pop=full gfinput

C 4 H 9 N 1 O 2

1 2
N    1.684313   0.924511   0.562042
C    4.009659   1.009416  -0.913815
C    5.926616   2.511087   0.501628
O    7.440872   4.168320  -1.033208
C    5.725266   5.348020   0.699747
C    6.937770   6.724704   2.832435
O    6.927037   9.356261   2.310039
H    0.394991  -0.163027  -0.372560
H    0.912700   2.690290   0.629317
H    3.624797   1.819145  -2.778181
H    4.715490  -0.914363  -1.196707
H    6.837558   1.464613   2.001749
H    4.056505   6.273947  -0.029763
H    8.890878   6.123280   3.146054
H    5.876425   6.409535   4.576047
H    7.900435   9.586372   0.767248

