%chk=mol_6903.chk
# wB97XD/Def2SVP opt pop=full gfinput

C 6 H 13 N 1

1 2
C    3.809386  -1.996628  -1.206212
C    3.274102   0.637027  -0.184683
C    5.656744   2.034479   0.607925
C    6.879132   1.037630   2.986825
C    7.362278   3.069501  -1.446113
C    5.737171   4.848262   0.044371
N    6.918193   6.649002   1.769540
H    2.053320  -2.883098  -1.846716
H    4.639939  -3.218374   0.240468
H    5.117170  -1.927785  -2.807963
H    1.990260   0.504500   1.434793
H    2.264364   1.704873  -1.647501
H    8.657818   1.995286   3.425469
H    7.315281  -0.973851   2.803201
H    5.606043   1.281650   4.597288
H    6.855095   2.749060  -3.405872
H    9.386439   3.084392  -1.132929
H    4.122475   5.645330  -0.952838
H    8.637560   6.038450   2.382075
H    5.837156   6.883365   3.347234

