%chk=mol_6368.chk
# wB97XD/Def2SVP opt pop=full gfinput

C 5 H 7 N 1 O 1

1 2
O    1.493262   2.179534  -1.336717
N    4.037060   1.920189  -2.009100
C    5.413801   2.233241  -0.015439
C    8.242456   2.108462  -0.169867
C    9.314290   4.767684   0.060887
C   12.090978   4.745121  -0.034771
C   14.358253   4.738998  -0.121169
H    0.630734   1.912100  -2.944647
H    4.577276   2.657012   1.849853
H    8.807050   1.236694  -1.961555
H    8.916087   0.902136   1.372810
H    8.689188   5.633746   1.838722
H    8.575596   5.962577  -1.461628
H   16.371416   4.738111  -0.205111

