%chk=mol_5508.chk
# wB97XD/Def2SVP opt pop=full gfinput

C 4 H 6 N 2 O 1

1 2
N    1.850779  -0.082581  -0.042746
C    4.402646   0.082373   0.002362
C    5.993191   2.138149  -0.143052
C    8.515484   1.217853  -0.001096
C    8.391102  -1.378139   0.202314
N    5.903391  -2.022820   0.194283
O    5.004505  -4.483716   0.227655
H    0.827908   1.525973   0.217205
H    1.010890  -1.599729   0.796860
H    5.417769   4.090955  -0.323748
H   10.230580   2.332338  -0.052761
H    9.846191  -2.804713   0.341511
H    3.961263  -4.376965  -1.281782

