%chk=mol_4541.chk
# wB97XD/Def2SVP opt pop=full gfinput

C 4 H 9 N 1 O 2

1 2
C    0.867006  -1.095153  -0.072679
C    3.642976  -0.565879  -0.652220
C    5.106872  -3.068745  -0.924095
N    7.804815  -2.637415  -1.385925
O    3.823747   0.769421  -3.028286
C    3.507162   3.308948  -2.902034
O    3.041325   4.559210  -1.023438
H   -0.198572   0.667565   0.119034
H    0.661555  -2.171333   1.681119
H   -0.018916  -2.158256  -1.612522
H    4.491274   0.553652   0.874641
H    4.349791  -4.155772  -2.516775
H    4.900457  -4.208307   0.790813
H    7.990026  -1.525765  -2.951110
H    8.655513  -4.312809  -1.807013
H    3.723894   4.106942  -4.811829

