%chk=mol_0291.chk
# wB97XD/Def2SVP opt pop=full gfinput

C 5 H 11 N 1

1 2
C    2.027147   0.134662  -0.201010
C    4.837774   0.205489  -0.076798
N    6.337518  -1.033869  -2.031739
C    6.486844   1.737395  -1.873720
C    5.341349   3.250707  -3.993823
C    8.893221   2.835062  -0.818799
H    1.232366   1.632534   0.983697
H    1.335658  -1.677548   0.519618
H    1.283313   0.369612  -2.114169
H    5.502637  -0.071488   1.843749
H    5.237055  -1.591357  -3.514078
H    3.784592   2.270015  -4.938459
H    6.769169   3.654655  -5.438065
H    4.624046   5.053203  -3.275746
H    9.681861   1.676055   0.705019
H    8.540145   4.726526  -0.056767
H   10.328638   2.990756  -2.301800

