%chk=mol_2320.chk
# wB97XD/Def2SVP opt pop=full gfinput

C 6 H 8 O 1

1 2
C    1.950141  -0.158775  -0.012680
C    4.710596   0.231794   0.000397
C    6.226194   2.348873   0.006954
C    8.751680   1.465747   0.019237
C    8.618701  -1.135612   0.019445
C   10.549680  -3.149380   0.029291
O    6.159392  -1.895074   0.007578
H    0.944013   1.648559   0.003099
H    1.363230  -1.236675   1.651961
H    1.374643  -1.201469  -1.703475
H    5.587769   4.289093   0.003364
H   10.460731   2.584068   0.027080
H    9.682976  -5.026728   0.044843
H   11.753737  -2.984048   1.702152
H   11.745819  -3.007688  -1.651337

