%chk=mol_0642.chk
# wB97XD/Def2SVP opt pop=full gfinput

C 5 H 10 O 1

1 2
C    1.991412   0.110776  -0.252694
C    4.780799   0.363224  -0.031199
O    6.178233  -0.729283  -2.079455
C    6.401277   1.960666  -1.784128
C    5.286301   3.437790  -3.923279
C    8.946625   2.800782  -0.875151
H    1.056943   1.553449   0.898130
H    1.397245  -1.744538   0.445522
H    1.308843   0.291169  -2.194822
H    5.439142   0.004176   1.872700
H    3.723327   2.450162  -4.847355
H    6.716181   3.799540  -5.375383
H    4.587726   5.260979  -3.241164
H    9.671902   1.581228   0.631641
H    8.839516   4.729701  -0.135380
H   10.317943   2.773249  -2.424084

