%chk=mol_0931.chk
# wB97XD/Def2SVP opt pop=full gfinput

C 4 H 9 N 1 O 1

1 2
C    1.345863   2.261001  -0.442725
C   -1.403084   2.225285   0.493124
O   -2.701137   0.003742  -0.351470
C   -1.405257  -2.231200   0.465326
C    1.343652  -2.259697  -0.469824
N    2.762836  -0.004724   0.354078
H    1.378253   2.366485  -2.511748
H    2.308716   3.947335   0.273727
H   -2.418906   3.865850  -0.252392
H   -1.489463   2.315122   2.560295
H   -1.492071  -2.345377   2.533102
H   -2.423630  -3.861069  -0.298388
H    2.302783  -3.954044   0.224764
H    1.374719  -2.338290  -2.540226
H    2.856019  -0.016441   2.280087

