%chk=mol_4660.chk
# wB97XD/Def2SVP opt pop=full gfinput

C 5 H 9 N 1 O 1

1 2
C    4.493126  -0.830837  -2.700230
C    4.526934   0.349108  -0.073888
N    6.251252   2.518948   0.013171
C    5.096044   4.778361  -1.155605
C    5.579511   6.132577   1.359790
O    5.368334   8.291513   2.103624
C    6.303578   3.608394   2.584182
H    3.279299  -2.506382  -2.707940
H    6.391318  -1.420904  -3.277087
H    3.762993   0.485603  -4.119376
H    5.194064  -1.092451   1.258633
H    2.595898   0.850282   0.494938
H    3.087661   4.674805  -1.640433
H    6.165591   5.553225  -2.743013
H    8.170175   3.609887   3.467307
H    4.886019   2.925031   3.927229

