%chk=mol_1046.chk
# wB97XD/Def2SVP opt pop=full gfinput

C 4 H 9 N 1 O 1

1 2
C    5.104774  -1.515919  -1.852461
N    4.759918  -0.006916   0.428533
C    5.678211   2.604099   0.121755
C    4.768138   4.185932   2.351934
C    8.563974   2.735738   0.061227
O    9.986277   0.967237   0.552046
H    4.396372  -3.428965  -1.516600
H    7.093484  -1.679400  -2.399858
H    4.035245  -0.728527  -3.441342
H    5.774663  -0.835977   1.849664
H    4.960096   3.427661  -1.636030
H    5.392655   3.383611   4.157057
H    2.702460   4.310182   2.382246
H    5.522026   6.114152   2.249662
H    9.344639   4.602182  -0.431973

