%chk=mol_2551.chk
# wB97XD/Def2SVP opt pop=full gfinput

C 6 H 6 O 1

1 2
C    1.745578   0.092124  -0.002060
C    4.271386   0.026003  -0.002646
O    5.634464   2.287967  -0.005688
C    8.242210   2.197355  -0.005839
C    9.572351   0.045051  -0.003553
C    8.227547  -2.323059  -0.000548
C    5.693310  -2.322530  -0.000510
H    0.758687   1.889103  -0.003704
H    0.611345  -1.613240   0.000000
H    9.050616   4.071018  -0.008957
H   11.619416   0.042009  -0.003817
H    9.299248  -4.069355   0.000888
H    4.662389  -4.095282   0.001228

