%chk=mol_4262.chk
# wB97XD/Def2SVP opt pop=full gfinput

C 5 H 7 N 1 O 1

1 2
C    1.517091   0.954671  -0.215561
C    3.954611   0.377019   0.163367
C    6.199285   2.124808   0.029121
C    7.480330   2.558633   2.555552
O    6.497483   4.910094   3.481480
N    5.724453   6.358267   1.368483
C    5.566434   4.815532  -0.511360
H    0.067596  -0.491688  -0.060226
H    0.876833   2.855282  -0.647741
H    4.403156  -1.582702   0.612139
H    7.529992   1.406712  -1.380672
H    9.528888   2.771189   2.335701
H    7.119014   1.070020   3.944954
H    4.991636   5.404711  -2.418736

