%chk=mol_0102.chk
# wB97XD/Def2SVP opt pop=full gfinput

C 5 H 8

1 2
C    3.063737  -1.815346   1.409736
C    4.526631  -0.564764  -0.236121
C    6.245620   1.581720   0.456010
C    8.950801   0.951288  -0.120281
C   10.395232   2.216706  -1.768614
H    1.854218  -3.348821   0.781364
H    3.039568  -1.345220   3.406231
H    4.476213  -1.102693  -2.220504
H    6.090436   2.034763   2.471686
H    5.642798   3.269737  -0.582962
H    9.764649  -0.637329   0.902873
H    9.673905   3.818078  -2.829392
H   12.345335   1.665945  -2.092834

