%chk=mol_1603.chk
# wB97XD/Def2SVP opt pop=full gfinput

C 5 H 12 N 2

1 2
C    6.719583   9.497631  -5.274452
C    7.184455   8.789664  -2.529436
N    9.174904   6.874710  -2.357320
N    9.755712   6.112130   0.013663
C   11.636896   4.551217   0.099230
C   12.526673   3.497373   2.583218
C   12.098763   0.665014   2.652930
H    5.239096  10.936563  -5.396642
H    6.106631   7.858691  -6.377523
H    8.430068  10.265842  -6.147751
H    5.431205   8.065238  -1.696143
H    7.743323  10.479986  -1.470283
H    8.708122   5.381146  -3.491023
H   12.660863   3.926964  -1.612673
H   11.517975   4.414948   4.139350
H   14.543295   3.915267   2.769488
H   10.089985   0.213558   2.447271
H   12.762057  -0.122095   4.446620
H   13.114095  -0.278886   1.115902

