%chk=mol_3693.chk
# wB97XD/Def2SVP opt pop=full gfinput

C 6 H 8 O 1

1 2
O    5.436610  -1.735770  -0.993694
C    4.170436   0.368761   0.075684
C    3.456403  -0.189615   2.691348
C    2.859666  -0.662009   4.831368
C    5.979434   2.539074   0.260177
C    6.417850   4.235254  -1.995324
C    5.054072   5.239228   0.285008
H    6.128703  -1.159517  -2.591362
H    2.511937   0.813092  -1.079166
H    2.340105  -1.095984   6.726990
H    7.624762   2.083536   1.401119
H    5.322093   3.930271  -3.699196
H    8.327022   4.898340  -2.336117
H    6.039943   6.570106   1.491958
H    3.041193   5.589621   0.130164

