%chk=mol_5568.chk
# wB97XD/Def2SVP opt pop=full gfinput

C 5 H 9 N 1 O 1

1 2
N    2.037295   0.270836   0.345858
C    4.719969  -0.138460  -0.166239
C    5.349853  -2.815219  -1.151769
O    5.812873  -2.634940  -3.829776
C    6.345190  -0.026532  -4.431729
C    4.149196   1.724564  -4.738602
C    5.543134   1.583194  -2.247848
H    1.772941   2.074579   0.959792
H    1.457036  -0.893519   1.761867
H    5.781107   0.222837   1.574576
H    3.844251  -4.188521  -0.799978
H    7.085377  -3.516421  -0.265866
H    8.090768   0.415891  -5.402425
H    4.412341   3.399428  -5.885779
H    2.276723   0.906294  -4.872886
H    6.742411   3.126514  -1.664244

