%chk=mol_4637.chk
# wB97XD/Def2SVP opt pop=full gfinput

C 4 H 5 N 1 O 2

1 2
C    0.969014   2.283054  -0.130580
C    2.383417   0.184853  -0.112533
C    5.174127   0.346935  -0.408597
O    6.283207   2.361402  -0.653241
N    6.322287  -1.974291  -0.376396
C    8.870733  -2.295356  -0.614803
O    9.863161  -4.387188  -0.585362
H   -1.067544   2.184939   0.085057
H    1.805671   4.145908  -0.360541
H    1.512178  -1.651904   0.119336
H    5.322149  -3.582675  -0.175329
H    9.954888  -0.530125  -0.834711

