%chk=mol_3122.chk
# wB97XD/Def2SVP opt pop=full gfinput

C 5 H 8 O 2

1 2
C    2.052564  -0.499322   0.196305
C    4.873150  -0.020333  -0.006123
C    5.540847   2.762628   0.205338
O    3.926341   4.425569   0.388509
C    8.311167   3.400506   0.059526
C    8.940899   5.842542   1.350549
O   10.766544   6.074619   2.765954
H    1.654380  -2.525298   0.068238
H    1.024194   0.458939  -1.322808
H    1.308352   0.192884   1.999387
H    5.569817  -0.716698  -1.826383
H    5.849383  -1.035060   1.509986
H    8.845279   3.547488  -1.930676
H    9.408436   1.892561   0.950759
H    7.775013   7.493501   0.834125

