%chk=mol_4195.chk
# wB97XD/Def2SVP opt pop=full gfinput

C 5 H 9 N 1 O 1

1 2
C    1.895376   0.003118   0.026362
C    4.772144  -0.046355  -0.198346
O    5.463595  -2.224548  -1.715323
C    6.220638  -1.191321  -3.983429
C    6.451620   1.306935  -4.045545
C    5.834435   2.343601  -1.521853
N    8.145192   3.349596  -0.383992
H    1.265739   1.595534   1.184613
H    1.214130  -1.752097   0.886452
H    0.996377   0.138385  -1.833696
H    5.583536  -0.298444   1.692420
H    6.608259  -2.540964  -5.457227
H    7.071374   2.407946  -5.645443
H    4.423697   3.852131  -1.631608
H    9.448196   1.928862  -0.290451
H    7.791322   3.840434   1.442787

