%chk=mol_1558.chk
# wB97XD/Def2SVP opt pop=full gfinput

C 5 H 12 N 2

1 2
C    5.061234  -1.115411  -0.038343
C    3.042251   0.886414   0.428628
N    4.105884   3.123377   1.728079
C    2.290764   5.246088   1.547894
C    2.583898   6.664686  -0.940536
N    4.958358   2.633069   4.112762
C    6.946047   3.931500   4.681948
H    4.242473  -2.718900  -1.057944
H    5.851840  -1.834754   1.732539
H    6.608240  -0.356346  -1.184273
H    1.499913   0.070014   1.548763
H    2.256768   1.407487  -1.414347
H    2.657957   6.607635   3.068840
H    0.338866   4.600217   1.810055
H    4.516407   7.374940  -1.160821
H    1.305650   8.291967  -0.981505
H    2.141230   5.477598  -2.574317
H    7.816228   3.708021   6.558332
H    7.855629   5.284487   3.378339

