%chk=mol_4221.chk
# wB97XD/Def2SVP opt pop=full gfinput

C 4 H 5 N 1 O 2

1 2
C    1.789949  -0.121075  -0.007427
C    4.549251   0.223347  -0.009184
C    6.133768   2.265819  -0.001757
O    5.377442   4.686010   0.010412
C    8.579432   1.243685  -0.009694
N    8.526425  -1.280554  -0.021448
O    5.978168  -1.923552  -0.021203
H    0.807631   1.698240   0.015968
H    1.194798  -1.192417   1.658027
H    1.188128  -1.153205  -1.695103
H    6.829262   5.815160   0.013738
H   10.388618   2.188020  -0.007634

