%chk=mol_1166.chk
# wB97XD/Def2SVP opt pop=full gfinput

C 6 H 12

1 2
C    1.727115  -0.041026   0.229696
C    4.595096  -0.010885  -0.051684
C    5.384756   0.040894  -2.831112
C    5.942565   2.002184   1.622424
C    7.933826  -0.013871   2.287873
C    5.979226  -2.047140   1.558552
H    1.156059  -0.078443   2.219370
H    0.914136  -1.708671  -0.686859
H    0.883107   1.640622  -0.632454
H    7.441779   0.065082  -3.052002
H    4.635064   1.722920  -3.775729
H    4.668512  -1.624957  -3.827376
H    4.843236   2.629459   3.264199
H    6.665933   3.672645   0.644075
H    9.601793   0.020201   1.060949
H    8.557020  -0.039533   4.256627
H    6.736307  -3.672437   0.529634
H    4.894353  -2.746264   3.179975

