%chk=mol_3356.chk
# wB97XD/Def2SVP opt pop=full gfinput

C 5 H 10 O 2

1 2
C    3.237158   2.830413   3.575041
O    5.749246   3.150873   2.676060
C    5.914578   2.716236   0.017121
C    8.647821   3.043650  -0.840210
C    9.524371   5.721165  -0.556487
C   11.326735   6.472406   1.512272
O   12.171424   6.069101  -1.032962
H    3.210097   3.255110   5.596273
H    2.618367   0.877022   3.300407
H    1.948383   4.128447   2.610279
H    4.675201   4.042937  -0.980749
H    5.295428   0.782800  -0.393687
H    8.797487   2.506892  -2.834173
H    9.872231   1.772884   0.245683
H    8.241247   7.113288  -1.325511
H   11.850850   5.081322   2.919608
H   11.268929   8.398548   2.197336

