%chk=mol_6420.chk
# wB97XD/Def2SVP opt pop=full gfinput

C 4 H 3 N 1 O 1 S 1

1 2
C    3.572376   0.609569   0.575951
O    2.512296   1.347998  -1.862174
C    4.655681   2.608635  -2.421174
N    4.921300   4.776850  -3.605314
S    7.180279   6.331263  -1.893487
C    7.045957   4.308292   0.740433
C    5.610975   2.339273  -0.042462
H    4.054389  -1.402328   0.591276
H    2.417640   1.081131   2.221638
H    7.811259   4.833938   2.557158

