%chk=mol_3157.chk
# wB97XD/Def2SVP opt pop=full gfinput

C 5 H 10 O 2

1 2
C    5.840274  -2.341012  -0.504576
C    4.542486   0.074682   0.361901
O    3.176422  -0.408748   2.633144
C    6.403639   2.148241   0.843649
O    7.089912   3.599683  -1.344200
C    5.640020   4.876381   0.556430
C    7.018764   6.919535   1.900138
H    6.874351  -2.044457  -2.271356
H    4.450589  -3.848257  -0.788791
H    7.180260  -3.021616   0.920864
H    3.160699   0.650387  -1.067922
H    4.344801  -1.138995   3.847105
H    7.874205   1.659085   2.176435
H    3.690541   5.339138   0.148476
H    9.007115   6.439431   2.215950
H    6.143670   7.274992   3.740770
H    6.946577   8.670574   0.803209

