%chk=mol_1506.chk
# wB97XD/Def2SVP opt pop=full gfinput

C 6 H 11 N 1

1 2
C    2.796152  -1.272523   1.405238
C    4.887795  -0.054840  -0.186308
N    6.556461  -2.064469  -1.138447
C    3.779717   1.611143  -2.271035
C    3.590480   0.850528  -4.695894
C    2.942341   4.179470  -1.672899
C    3.009861   5.337853   0.575252
H    1.556889   0.149496   2.255974
H    3.601535  -2.390126   2.952584
H    1.609877  -2.533329   0.265393
H    6.079929   1.112992   1.040351
H    5.478788  -3.448845  -1.928201
H    7.444708  -2.890034   0.356006
H    4.210688  -1.007810  -5.297677
H    2.830961   2.058573  -6.169597
H    2.194029   5.273054  -3.251973
H    3.721551   4.457524   2.281466
H    2.337723   7.269814   0.753717

