%chk=mol_5944.chk
# wB97XD/Def2SVP opt pop=full gfinput

C 5 H 9 N 1 O 1

1 2
O    1.885134   0.037606  -0.181187
C    4.579052  -0.108187   0.079104
C    5.912575  -1.516411  -1.973970
C    6.102020   1.330443  -1.862495
C    8.542375   2.697357  -1.172273
C   11.084302   1.979620  -2.259734
N    9.776669   4.233270  -3.121733
H    1.252057   1.662808   0.397995
H    5.341254  -0.275012   1.977145
H    4.782084  -2.337572  -3.472447
H    7.549891  -2.629459  -1.457508
H    4.986175   2.324741  -3.283947
H    8.560742   3.540326   0.703092
H   11.175028   0.430990  -3.595261
H   12.754593   2.256050  -1.111556
H   10.545504   5.824779  -2.348400

