%chk=mol_4625.chk
# wB97XD/Def2SVP opt pop=full gfinput

C 5 H 11 N 1 O 1

1 2
C    2.262815   0.590974   0.746045
C    4.562007   0.246326  -0.942463
C    6.919213  -0.469313   0.541331
O    6.853810  -0.727866   2.852258
N    9.129721  -0.824903  -0.845275
C    9.422609  -0.145036  -3.493348
C   11.454064  -1.304006   0.539800
H    0.608945   1.100123  -0.386449
H    2.580213   2.090226   2.136600
H    1.828971  -1.150125   1.776683
H    4.916425   2.019720  -1.948742
H    4.162254  -1.250885  -2.314404
H    7.633549  -0.184135  -4.516143
H   10.713633  -1.481696  -4.398904
H   10.215160   1.761225  -3.596073
H   11.082715  -2.167837   2.379184
H   12.431034   0.494900   0.827020
H   12.654797  -2.580856  -0.555485

