%chk=mol_3919.chk
# wB97XD/Def2SVP opt pop=full gfinput

C 5 H 11 N 1 O 1

1 2
C    1.604245   0.036661  -0.456652
C    4.391270  -0.031275   0.128823
C    4.951328  -0.071148   2.925239
C    6.201722  -1.431940  -1.585291
N    5.334659  -2.858551  -3.791698
C    6.143027   1.419695  -1.607647
O    8.267665   2.647166  -0.447601
H    1.217664   0.308025  -2.471271
H    0.696043   1.596705   0.557261
H    0.705246  -1.729421   0.137213
H    6.977776  -0.262011   3.324047
H    3.990383  -1.667910   3.828566
H    4.290963   1.676168   3.817719
H    7.838338  -2.295620  -0.681171
H    3.947770  -1.929221  -4.751395
H    4.563254  -4.535929  -3.239841
H    5.327157   2.344016  -3.245302
H    9.822834   2.201777  -1.315760

