%chk=mol_6739.chk
# wB97XD/Def2SVP opt pop=full gfinput

C 5 H 6 N 2

1 2
C    1.852839   0.118297   0.010186
C    4.627372  -0.125478   0.004668
C    6.135865  -2.146540   0.000151
C    8.749035  -1.213053  -0.005008
N   10.804661  -2.476070  -0.009713
N    8.739095   1.361604  -0.004139
C    6.385819   1.995211   0.001417
H    0.935244  -1.735335   0.002797
H    1.211938   1.154264  -1.660899
H    1.217399   1.138466   1.693043
H    5.619705  -4.109928   0.000170
H   10.435918  -4.368801  -0.009486
H    5.670501   3.946258   0.003534

