%chk=mol_5138.chk
# wB97XD/Def2SVP opt pop=full gfinput

C 5 H 11 N 1 O 1

1 2
C    1.535308  -0.614615   0.012604
N    4.262693  -0.323937   0.227258
C    5.011195   2.340747  -0.018444
C    7.899547   2.615154  -0.018198
O    8.888781   1.473306  -2.264459
C   11.446449   1.530244  -2.589794
C   13.224341   2.536485  -1.098044
H    1.041598  -2.615079   0.176708
H    0.836846   0.065328  -1.811699
H    0.559680   0.394991   1.530905
H    5.137088  -1.322317  -1.178112
H    4.231229   3.427529   1.561764
H    4.265660   3.113607  -1.790100
H    8.698485   1.705535   1.666001
H    8.373358   4.633400  -0.003420
H   11.924059   0.584454  -4.345652
H   12.800268   3.486545   0.663143
H   15.199200   2.413634  -1.637334

