%chk=mol_6220.chk
# wB97XD/Def2SVP opt pop=full gfinput

C 4 H 9 N 1 O 2

1 2
O    1.616755   0.175839   0.238238
C    4.288186  -0.105314   0.158661
C    5.476936   2.514885   0.050040
C    8.352363   2.434421   0.102726
C    9.381621   1.309127  -2.293598
N   10.549888  -0.836846  -2.255861
O   11.293117  -1.443354  -4.718740
H    0.902080  -1.516260   0.315244
H    4.772315  -1.223163  -1.512405
H    4.892369  -1.124784   1.854218
H    4.795577   3.631884   1.658140
H    4.806197   3.500283  -1.646537
H    9.031700   1.363985   1.738832
H    9.094326   4.361979   0.241885
H    9.073067   2.374214  -4.061645
H   12.211618  -3.024299  -4.479142

