%chk=mol_0263.chk
# wB97XD/Def2SVP opt pop=full gfinput

C 5 H 7 N 1

1 2
C    1.831787  -0.036642  -0.015288
C    4.630301   0.113875  -0.000775
C    6.229463   2.176454   0.007181
C    8.739019   1.256252   0.019464
C    8.610707  -1.340194   0.018746
N    6.111204  -2.018379   0.006255
H    0.986418   1.851667   0.001493
H    1.149672  -1.058379   1.649599
H    1.165980  -1.021907  -1.708123
H    5.648448   4.138708   0.004214
H   10.454305   2.368507   0.028044
H   10.079289  -2.763082   0.025870
H    5.459173  -3.815527   0.002702

