%chk=mol_3262.chk
# wB97XD/Def2SVP opt pop=full gfinput

C 5 H 12 O 2

1 2
C    2.029944   1.858092   1.125502
C    4.766494   1.051047   0.872827
O    6.247303   3.228427   0.296385
C    8.885077   2.622524   0.141937
C   10.312462   5.044284  -0.547775
C   13.147694   4.620324  -0.658570
O    9.474520   5.900934  -2.970990
H    0.815851   0.233665   1.523119
H    1.374776   2.775932  -0.609418
H    1.817898   3.237705   2.653478
H    4.954560  -0.338015  -0.650028
H    5.416239   0.207114   2.648016
H    9.150451   1.186994  -1.328742
H    9.534840   1.886797   1.965164
H    9.868225   6.542459   0.808727
H   13.630236   3.183206  -2.068721
H   13.888410   4.022131   1.177205
H   14.116652   6.358607  -1.226791
H    7.630015   5.870756  -2.877335

