%chk=mol_5125.chk
# wB97XD/Def2SVP opt pop=full gfinput

C 4 H 10 N 2 O 1

1 2
C    4.843935  -2.296168  -0.725598
N    3.693507   0.049983   0.064799
C    4.968940   2.319809  -0.040176
C    3.385860   4.690565   0.269702
N    7.408104   2.415391  -0.379003
O    8.293687   4.912154  -0.422845
C   10.964380   4.855878  -0.710083
H    3.570505  -3.870329  -0.308460
H    6.620807  -2.635204   0.276939
H    5.205175  -2.277611  -2.761060
H    1.787341   0.115840  -0.096716
H    1.380407   4.227015   0.462454
H    3.619336   5.907794  -1.385037
H    3.990610   5.709203   1.963955
H   11.651238   6.800935  -0.810957
H   11.479727   3.876225  -2.456115
H   11.836470   3.923884   0.916101

