%chk=mol_3996.chk
# wB97XD/Def2SVP opt pop=full gfinput

C 5 H 11 N 1 O 1

1 2
C    1.917675  -0.270628   0.453969
C    4.711768   0.082827  -0.159474
C    5.295088   0.070468  -3.007953
N    4.239941   2.276213  -4.313035
C    6.054758   2.152266   1.394864
C    7.591653  -0.011093   2.505758
O    6.177874  -1.880807   1.100954
H    1.617851  -0.481748   2.491699
H    1.165262  -1.964144  -0.466611
H    0.801962   1.354140  -0.173250
H    4.559002  -1.656402  -3.882915
H    7.345630   0.068578  -3.304186
H    2.318127   2.136165  -4.349602
H    4.794386   2.224793  -6.158693
H    4.872394   3.151062   2.764310
H    7.164651   3.523602   0.319798
H    9.592231  -0.034431   1.985252
H    7.391286  -0.282136   4.544810

