%chk=mol_1595.chk
# wB97XD/Def2SVP opt pop=full gfinput

C 5 H 10 N 2

1 2
C    7.466006  -3.613270  -2.184467
C    7.902041  -0.818781  -2.117589
N    9.864938   0.106089  -0.990954
N    9.973577   2.666687  -1.077408
C   12.213999   3.806645   0.077838
C   12.133969   6.621317  -0.245192
C   12.104641   8.286752   1.663790
H    5.645519  -4.024058  -1.300887
H    8.965654  -4.621231  -1.186049
H    7.401301  -4.232779  -4.152787
H    6.479909   0.376377  -3.072430
H    8.418125   3.464227  -0.253242
H   13.923465   3.084883  -0.845067
H   12.314835   3.288275   2.081817
H   12.127261   7.314809  -2.178817
H   12.125352   7.680263   3.623663
H   12.061744  10.302957   1.293121

