%chk=mol_4408.chk
# wB97XD/Def2SVP opt pop=full gfinput

C 5 H 9 N 1 O 1

1 2
C    1.855465   0.017934  -0.012227
C    4.762110   0.000000   0.000000
C    5.699717  -1.368559   2.383984
C    5.704309  -1.354971  -2.404317
O    8.367632  -1.773886  -2.388557
C    5.672996   2.572238   0.000000
N    6.399047   4.622572   0.000000
H    1.114069   0.978746  -1.691777
H    1.099405   1.004994   1.645007
H    1.094832  -1.907754   0.000643
H    4.966597  -0.470598   4.101613
H    7.766132  -1.343387   2.523484
H    5.086765  -3.346100   2.396645
H    5.227965  -0.300107  -4.124214
H    4.817914  -3.219281  -2.564434
H    9.206406  -0.159795  -2.687890

