%chk=mol_5023.chk
# wB97XD/Def2SVP opt pop=full gfinput

C 5 H 11 N 1 O 1

1 2
C    3.232547  -1.086517  -2.058554
N    4.307158  -0.022601   0.244058
C    5.868998   2.233241  -0.275087
C    8.220403   1.769332  -1.839800
C    4.215677   4.556659  -0.892291
O    5.381600   5.991207   1.147442
C    6.316145   3.645905   2.245656
H    1.910211  -2.596370  -1.553695
H    4.686767  -1.917600  -3.272212
H    2.169519   0.318135  -3.143276
H    5.241571  -1.411191   1.199863
H    9.391108   3.474545  -1.957492
H    7.751619   1.227547  -3.781191
H    9.387442   0.270798  -1.015312
H    2.174583   4.390835  -0.587195
H    4.566126   5.436780  -2.729842
H    8.287961   3.826639   2.843735
H    5.159784   3.095126   3.873580

