%chk=mol_2814.chk
# wB97XD/Def2SVP opt pop=full gfinput

C 6 H 6 O 1

1 2
C    1.889726   0.000000   0.000000
C    4.618491   0.000000   0.000000
C    6.867567   0.000000   0.000000
C    9.524522   0.000000   0.000000
C   10.829623   2.163755   0.078537
C   13.613852   2.111731   0.075873
O   14.854211   4.063554   0.146888
H    1.145174   1.929184   0.022091
H    1.145042  -0.983659   1.659652
H    1.145042  -0.945392  -1.681743
H   10.469518  -1.820505  -0.066481
H    9.947008   4.010547   0.145887
H   14.509733   0.231832   0.006765

