%chk=mol_4084.chk
# wB97XD/Def2SVP opt pop=full gfinput

C 4 H 7 N 1 O 2

1 2
C    1.812512  -0.043861   0.478573
C    4.637105  -0.087438  -0.037284
C    5.506719   2.285189  -1.377988
O    8.156001   2.000918  -1.785621
N    8.719027  -0.107166  -3.325767
C    7.243585  -2.037125  -3.086452
O    5.181327  -2.249303  -1.584346
H    1.287149   1.566016   1.666474
H    1.226281  -1.786264   1.431864
H    0.735878   0.053744  -1.288434
H    5.664794  -0.342211   1.742649
H    5.203342   3.967763  -0.214295
H    4.570019   2.563338  -3.205883
H    7.529160  -3.782532  -4.178959

