%chk=mol_4587.chk
# wB97XD/Def2SVP opt pop=full gfinput

C 4 H 10 N 2 O 1

1 2
C    1.587181  -0.084868   0.305210
C    4.452667   0.117220   0.081069
C    5.788420  -1.509116   2.053395
O    5.145611  -0.780684  -2.378579
C    5.281558   2.915186   0.299465
N    6.313235   4.057242  -1.770862
N    5.014880   4.240073   2.337780
H    0.656264   1.086933  -1.126352
H    0.913815   0.526081   2.163018
H    0.956201  -2.030076  -0.017253
H    5.236696  -0.999741   3.980425
H    7.843743  -1.300699   1.905940
H    5.371037  -3.515514   1.758938
H    6.978192  -0.611610  -2.482306
H    5.632575   3.406930  -3.444895
H    6.276007   5.968322  -1.619760
H    4.211689   3.189158   3.751673

