%chk=mol_3308.chk
# wB97XD/Def2SVP opt pop=full gfinput

C 6 H 12 O 1

1 2
C    3.747402  -0.913513  -2.530721
O    4.209913   0.152501  -0.112930
C    5.770014   2.387480  -0.084093
C    4.500042   4.887569  -0.925909
C    5.990583   6.224002   1.187126
C    6.112036   3.642428   2.555873
C    8.543547   3.049980   3.947373
H    2.569385  -2.594329  -2.294997
H    5.530831  -1.464840  -3.418722
H    2.748456   0.440495  -3.731132
H    7.577707   2.044155  -1.047607
H    2.446288   4.922925  -0.660592
H    4.940254   5.511178  -2.845625
H    7.826263   6.955647   0.565217
H    4.975876   7.720911   2.185204
H    4.471148   3.332438   3.792284
H   10.203728   3.349974   2.749174
H    8.558456   1.079393   4.577408
H    8.736318   4.253320   5.619157

