%chk=mol_5817.chk
# wB97XD/Def2SVP opt pop=full gfinput

C 4 H 6 N 2 O 1

1 2
N    4.106904  -0.508714   2.292824
C    3.964570   1.859944   1.760431
N    5.883341   3.391189   0.966028
C    8.361225   2.714535   0.570149
C   10.243110   4.214316  -0.193357
C   12.805313   3.169222  -0.522509
O   14.559754   4.508811  -1.214848
H    2.365559  -1.161293   2.839880
H    2.151056   2.878847   1.924988
H    5.464767   5.231083   0.630658
H    8.683651   0.716055   0.958715
H   10.010484   6.204689  -0.597739
H   13.046122   1.139977  -0.115273

