%chk=mol_6896.chk
# wB97XD/Def2SVP opt pop=full gfinput

C 6 H 5 N 1

1 2
C    1.933228   0.034317  -0.185155
C    4.199614   0.025795  -0.087154
C    6.906968   0.016214   0.040232
C    8.359563  -1.369579  -1.975463
C    8.373036   1.479221  -1.928806
C   10.625477   2.782433  -1.168493
N   12.450706   3.824579  -0.547737
H   -0.078915   0.039722  -0.265034
H    7.685535  -0.060093   1.940125
H    7.322500  -2.294033  -3.482501
H   10.049941  -2.379297  -1.403651
H    7.299955   2.422062  -3.400789

