%chk=mol_4426.chk
# wB97XD/Def2SVP opt pop=full gfinput

C 5 H 9 N 1 O 1

1 2
C    0.265866  -0.403967  -0.458126
C    2.913693  -0.807782   0.436149
C    4.807558   0.837281   0.063003
C    7.459221   0.463531   0.987231
O    9.120027   0.537022  -1.141036
N   11.614615   0.236216  -0.280416
C   13.105780   0.243113  -2.206841
H   -0.272442  -1.906072  -1.773319
H    0.032636   1.412778  -1.418561
H   -1.032131  -0.452495   1.150787
H    3.270417  -2.562393   1.447814
H    4.459565   2.590796  -0.953367
H    7.676521  -1.349302   1.964559
H    7.950002   1.995248   2.292030
H   15.156510   0.027477  -1.931621
H   12.430089   0.457144  -4.166846

