%chk=mol_4451.chk
# wB97XD/Def2SVP opt pop=full gfinput

C 4 H 7 N 1 O 2

1 2
C    2.220183  -0.988931   0.388395
C    4.621911   0.496960  -0.109699
C    4.113499   3.303374   0.032277
C    4.252375   4.516880   2.621296
O    4.627864   3.243885   4.510833
N    3.532163   4.526216  -2.021119
O    3.077457   7.088590  -1.573348
H    2.590644  -3.019178   0.264335
H    0.755456  -0.512739  -0.993240
H    1.462421  -0.582773   2.269618
H    5.342596   0.045221  -1.998348
H    6.095349  -0.019823   1.247748
H    4.012021   6.580121   2.672999
H    2.660432   7.719380  -3.258927

