%chk=mol_1530.chk
# wB97XD/Def2SVP opt pop=full gfinput

C 6 H 13 N 1

1 2
C    1.903956  -0.095242  -0.007389
C    4.776528  -0.084225   0.084187
N    5.706803   2.514488  -0.043256
C    8.475686   2.586714   0.066802
C    9.423913   5.326779  -0.029574
C   12.262074   5.456717   0.065762
C   13.572259   6.608448   1.898778
H    1.196216  -2.037408   0.079671
H    1.207289   0.758763  -1.759656
H    1.096910   0.947660   1.588315
H    5.503752  -1.185236  -1.511516
H    5.400951  -0.995300   1.836096
H    4.979731   3.531331   1.424173
H    9.264288   1.530300  -1.533343
H    9.141078   1.686826   1.812304
H    8.598291   6.408515   1.535478
H    8.788549   6.229501  -1.784431
H   13.282091   4.569056  -1.484153
H   12.640453   7.535869   3.473846
H   15.623273   6.651893   1.854086

