%chk=mol_5285.chk
# wB97XD/Def2SVP opt pop=full gfinput

C 4 H 5 N 1 O 2

1 2
C    5.823021  -2.209713   1.006827
O    4.450872   0.027930   0.460111
C    5.908474   2.108160   0.219265
N    4.683214   4.248558  -0.294741
O    6.548506   6.084616  -0.450775
C    8.835320   5.003447  -0.028233
C    8.536385   2.467699   0.409712
H    4.469316  -3.765412   1.161218
H    6.817282  -2.056003   2.816353
H    7.143562  -2.670977  -0.519599
H   10.434520   6.269034  -0.105163
H   10.005892   1.112463   0.802888

