%chk=mol_5806.chk
# wB97XD/Def2SVP opt pop=full gfinput

C 4 H 6 N 2 O 1

1 2
N    2.365314   0.029083   1.303533
C    4.499400   0.155638   0.154920
N    5.680781   2.404261  -0.213161
C    5.006716   4.974326   0.470296
C    7.500531   5.819242  -0.786901
C    7.910715   2.994668  -1.357352
O    9.494835   1.707008  -2.379713
H    1.790950  -1.821998   1.389289
H    5.506907  -1.504524  -0.598722
H    4.902781   5.280235   2.510860
H    3.284722   5.644347  -0.453969
H    7.289618   6.992251  -2.472631
H    8.906336   6.628744   0.490006

