%chk=mol_2623.chk
# wB97XD/Def2SVP opt pop=full gfinput

C 6 H 6 O 1

1 2
C    1.889726   0.000000   0.000000
C    4.138803   0.000000   0.000000
C    6.795758   0.000000   0.000000
C    8.228321  -2.063751  -0.126763
C   10.931140  -1.343954  -0.080502
O   10.985507   1.374776  -0.033221
C    8.419769   2.281731   0.143544
H   -0.123229  -0.004705  -0.000888
H    7.556278  -3.986623  -0.239957
H   11.885282  -2.057609   1.607609
H   11.931807  -1.996534  -1.765684
H    8.081282   3.590083  -1.420923
H    8.202224   3.281207   1.940786

