%chk=mol_3552.chk
# wB97XD/Def2SVP opt pop=full gfinput

C 5 H 6 O 2

1 2
O    1.939313   0.003534  -0.009581
C    4.609552   0.167713  -0.107903
C    5.386211   2.690309   0.958375
C    6.967722   2.345377   2.917435
C    7.469596  -0.334633   3.456555
O    8.474931  -2.031607   1.589656
C    5.787437  -1.768897   1.631627
H    1.479656  -1.546023  -0.878968
H    5.254251  -0.049133  -2.061200
H    4.746349   4.485152   0.232814
H    7.803756   3.859066   4.010452
H    7.489684  -0.908902   5.420358
H    4.606132  -3.286990   2.295923

