%chk=mol_3524.chk
# wB97XD/Def2SVP opt pop=full gfinput

C 6 H 8 O 1

1 2
O    1.881147  -0.234250   0.171171
C    4.169360  -0.076647   0.074814
C    6.055193  -2.252251   0.133736
C    8.554677  -0.724842  -0.046260
C    8.146420   1.359563  -2.137053
C    6.102511   2.231691  -0.139311
C    8.286771   1.601127   1.800040
H    5.800174  -3.485260  -1.501444
H    5.924084  -3.284382   1.916126
H   10.328241  -1.771013  -0.045826
H    7.421124   0.698745  -3.956161
H    9.724833   2.658145  -2.468568
H    5.353726   4.141410  -0.229432
H    9.879337   2.923406   1.857884
H    7.695664   1.169344   3.733059

