%chk=mol_5124.chk
# wB97XD/Def2SVP opt pop=full gfinput

C 4 H 10 N 2 O 1

1 2
C    2.014977  -0.354702   0.089063
N    4.757594  -0.096187   0.052081
C    5.487292   2.588603  -0.036642
C    8.378233   2.882475  -0.031804
N    9.581516   1.600315  -2.139246
C    9.683864   2.651815  -4.498663
O    8.846848   4.722199  -5.086992
H    1.516108  -2.358888   0.180110
H    1.155775   0.439172  -1.616642
H    1.198691   0.566105   1.751323
H    5.443016  -0.948586  -1.535289
H    4.723484   3.584244   1.611974
H    4.703245   3.471162  -1.740627
H    9.183313   2.092154   1.703834
H    8.866595   4.892766  -0.109963
H   10.205126  -0.187102  -1.875308
H   10.624853   1.396224  -5.870415

