%chk=mol_4606.chk
# wB97XD/Def2SVP opt pop=full gfinput

C 7 H 14

1 2
C    5.868620  -2.060727  -1.125615
C    4.613294   0.236121   0.096074
C    3.579519  -0.449093   2.704859
C    6.468740   2.388878   0.301525
C    6.905532   4.125083  -1.919981
C    5.528318   5.082248   0.379797
C    6.750631   6.954570   2.091606
H    6.574962  -1.593549  -3.013962
H    4.525157  -3.622699  -1.314380
H    7.476985  -2.724380  -0.004082
H    3.014680   0.803833  -1.098195
H    5.095873  -1.044074   3.982428
H    2.204725  -1.989560   2.572900
H    2.636206   1.176770   3.571053
H    8.099726   1.903635   1.447757
H    5.816010   3.827867  -3.629956
H    8.819408   4.772428  -2.261870
H    3.514097   5.419394   0.208569
H    8.789343   6.642614   2.260358
H    5.922591   6.833288   3.983146
H    6.450372   8.872963   1.378158

