%chk=mol_6388.chk
# wB97XD/Def2SVP opt pop=full gfinput

C 4 H 3 N 1 O 2

1 2
O    1.806427  -0.085208   0.039269
N    4.454349  -0.111569   0.034317
C    5.399817   2.153249  -0.030009
C    3.887563   4.558208  -0.058714
O    4.824395   6.548298  -0.762826
C    8.123554   2.064507  -0.048736
C   10.393172   1.997308  -0.063986
H    1.394089  -1.886551   0.039004
H    1.931262   4.392196   0.623780
H   12.405164   1.938235  -0.083167

