%chk=mol_5617.chk
# wB97XD/Def2SVP opt pop=full gfinput

C 5 H 9 N 1 O 1

1 2
N    4.487211  -0.707117   2.760304
C    4.877119   0.008957   0.124495
C    5.857546   2.652079  -0.074833
C    8.065691   3.408782  -1.016049
C    8.267911   6.180765  -0.748445
C    5.592380   6.864430   0.070846
O    4.316172   4.585194   0.845275
H    3.402036  -2.292313   2.821267
H    3.446048   0.688465   3.591538
H    3.081255  -0.120602  -0.898187
H    6.185830  -1.333070  -0.752659
H    9.519401   2.190533  -1.766006
H    9.656255   6.676648   0.702600
H    8.783561   7.125704  -2.512126
H    4.521264   7.699103  -1.494679
H    5.591227   8.210387   1.642455

