%chk=mol_6952.chk
# wB97XD/Def2SVP opt pop=full gfinput

C 5 H 8 N 2

1 2
C    1.883679  -0.001342   0.372862
C    4.600746   0.220248  -0.353379
C    5.976108   2.340105  -0.233117
C    8.739227   2.578191  -0.987817
N    9.313043   5.368901  -0.865589
C    7.199063   6.338406  -0.052912
N    5.278194   4.723295   0.427248
H    1.531755  -1.866577   1.198880
H    0.678998   0.202465  -1.294047
H    1.332125   1.410624   1.777968
H    5.501654  -1.503277  -1.017561
H    9.067208   1.903635  -2.915602
H    9.972576   1.583647   0.345007
H    6.845627   8.361698   0.260064
H    3.460958   5.220633   0.708326

