%chk=mol_4222.chk
# wB97XD/Def2SVP opt pop=full gfinput

C 4 H 7 N 1 O 2

1 2
C    1.907187  -0.025568  -0.092464
C    4.780667   0.098096  -0.054764
O    5.772338  -2.037522  -1.426346
N    6.254106  -1.256706  -3.948621
C    6.238477   1.181060  -3.942460
C    5.851121   2.374573  -1.428841
O    8.257045   3.105463  -0.477590
H    1.083475   1.569550   0.932448
H    1.256649  -1.782957   0.785502
H    1.168474  -0.022677  -2.025749
H    5.471759  -0.018066   1.892428
H    6.588058   2.340728  -5.628870
H    4.602636   4.014534  -1.504241
H    9.282638   1.573424  -0.372182

