%chk=mol_1435.chk
# wB97XD/Def2SVP opt pop=full gfinput

C 4 H 7 N 3

1 2
C    1.828688  -0.140558  -0.063589
C    4.701298   0.024774   0.087532
C    5.892166  -1.454843  -1.935023
N    6.817754  -2.603986  -3.561038
C    5.519909   2.786949  -0.065063
N    5.344391   4.125234  -2.262512
N    6.351200   3.994522   1.897757
H    0.946847   0.985492   1.433319
H    1.187239  -2.098446   0.142825
H    1.114372   0.564253  -1.876215
H    5.308165  -0.737655   1.916428
H    5.613979   3.200591  -3.921616
H    6.289632   5.795204  -2.170029
H    6.387577   2.873291   3.477058

