%chk=mol_2470.chk
# wB97XD/Def2SVP opt pop=full gfinput

C 6 H 8 O 1

1 2
C    1.838647  -0.109207  -0.017669
C    4.610799   0.188500   0.001625
C    6.197943   2.252799   0.013738
C    8.709993   1.294614   0.030425
C   11.096075   2.756884   0.048245
C    8.460172  -1.300339   0.027155
O    5.989033  -1.982890   0.009581
H    0.894388   1.730592  -0.002986
H    1.212600  -1.167529   1.644874
H    1.232536  -1.130944  -1.710183
H    5.616077   4.211651   0.010960
H   10.727597   4.792232   0.022034
H   12.243176   2.292408  -1.609366
H   12.196198   2.326650   1.746390
H    9.795679  -2.846835   0.035546

