%chk=mol_0386.chk
# wB97XD/Def2SVP opt pop=full gfinput

C 5 H 11 N 1

1 2
C    2.008439  -0.570395  -0.083186
C    4.863588  -0.493899  -0.410694
C    6.005058   1.856996   0.829987
N    8.745860   1.897172   0.421560
C   10.089910   3.484504   2.230557
C   10.186210   0.643546   2.412198
H    1.233500  -2.272736  -0.963723
H    1.118491   1.073837  -0.968220
H    1.492468  -0.590521   1.918828
H    5.313967  -0.522282  -2.433098
H    5.679818  -2.207276   0.423431
H    5.480659   1.907433   2.837481
H    5.189981   3.552402  -0.041857
H    9.010649   4.521151   3.627329
H   11.740944   4.457429   1.507453
H   11.897224  -0.301506   1.804556
H    9.170803  -0.282684   3.926662

