%chk=mol_6250.chk
# wB97XD/Def2SVP opt pop=full gfinput

C 5 H 11 N 1 O 1

1 2
O    4.881257  -1.118094  -1.902633
C    4.042068   0.410808   0.157206
C    5.047440   3.109658  -0.144299
N    7.819177   3.126080   0.037776
C    8.824965   5.638980  -0.477175
C   11.646552   5.573634  -0.269796
C   13.239043   6.293544  -2.099580
H    4.375529  -2.842507  -1.515485
H    4.698294  -0.434675   1.929259
H    1.973706   0.420407   0.150252
H    4.235821   4.310636   1.331784
H    4.465442   3.836144  -1.994814
H    8.486193   1.891295  -1.293933
H    8.106170   6.988869   0.918558
H    8.243212   6.291919  -2.354958
H   12.415406   4.903556   1.516052
H   12.561974   6.981480  -3.910562
H   15.268987   6.201344  -1.817973

