%chk=mol_1903.chk
# wB97XD/Def2SVP opt pop=full gfinput

C 5 H 8 N 2

1 2
N    2.603268   0.241753   1.933379
C    4.326622   0.098946   0.225104
C    5.641154  -2.396569  -0.401661
C    7.719588  -1.635690  -2.193311
C    9.794110   0.146737  -1.401761
C    7.449338   1.162616  -2.627437
N    5.263454   2.068456  -1.189866
H    1.958966   2.060803   2.037011
H    4.287694  -3.670755  -1.305234
H    6.388843  -3.262801   1.318859
H    7.986341  -2.881020  -3.785556
H   10.085563   0.484450   0.597116
H   11.522605   0.143203  -2.502167
H    7.566520   1.881638  -4.541239
H    5.214926   3.820251  -0.423072

