%chk=mol_4607.chk
# wB97XD/Def2SVP opt pop=full gfinput

C 4 H 9 N 1 O 2

1 2
C    1.825646  -0.833124   0.140860
C    4.642036  -0.564726  -0.400490
C    5.437460  -2.294298  -2.561429
O    5.169875   1.991847  -1.184065
C    5.662999   3.733211   0.622778
N    5.709146   3.259437   3.009238
O    6.289878   5.487916   4.314717
H    1.250602   0.414266   1.687582
H    1.345107  -2.776613   0.658078
H    0.700276  -0.288070  -1.509079
H    5.752119  -1.065522   1.275811
H    4.432126  -1.816707  -4.307158
H    5.077316  -4.279228  -2.107914
H    7.456160  -2.064715  -2.956892
H    6.021650   5.595971  -0.236121
H    6.303635   4.926176   6.071085

