%chk=mol_3518.chk
# wB97XD/Def2SVP opt pop=full gfinput

C 6 H 10 O 1

1 2
O    1.853235  -0.302696   0.048868
C    4.555884  -0.431519  -0.059262
C    5.623976  -1.252321  -2.554759
C    5.799078   1.478314  -1.761886
C    8.305006   2.608294  -1.065900
C    8.156569   4.459527   1.082700
C    9.407095   4.199992   3.268905
H    1.307861   0.996490   1.229626
H    5.551316  -1.021718   1.634367
H    4.304626  -1.741931  -4.042654
H    7.312730  -2.408513  -2.525317
H    4.593376   2.821777  -2.731958
H    9.056550   3.600363  -2.723662
H    9.668519   1.109099  -0.624214
H    6.955893   6.104836   0.807348
H   10.633981   2.594764   3.625893
H    9.228383   5.603945   4.753474

