%chk=mol_4015.chk
# wB97XD/Def2SVP opt pop=full gfinput

C 5 H 7 N 1 O 1

1 2
C    1.773735   0.058582  -0.015685
C    4.578806  -0.005877  -0.000756
C    6.200456   2.040281   0.006784
N    8.631967   1.150201   0.019804
C    8.609781  -1.433357   0.020579
O   10.772838  -2.694693   0.032258
C    6.128986  -2.208353   0.007937
H    1.065560   2.001636   0.002853
H    1.022040  -0.915232   1.647218
H    1.041315  -0.876795  -1.708804
H    5.833452   4.051743   0.004063
H   10.219394   2.208958   0.027647
H   10.346742  -4.484660   0.030689
H    5.475765  -4.146097   0.005140

