%chk=mol_4042.chk
# wB97XD/Def2SVP opt pop=full gfinput

C 5 H 11 N 1 O 1

1 2
C    2.017453   0.173345  -0.222251
C    4.830518   0.084622  -0.131128
C    6.408175  -1.275055  -2.076677
O    5.145875  -2.395870  -4.201617
C    6.525149   1.597574  -1.894224
C    5.424932   3.172132  -4.004198
N    8.805575   2.741445  -0.745932
H    1.322355   1.611407   1.091940
H    1.239868  -1.650298   0.367571
H    1.250810   0.612479  -2.086617
H    5.440144  -0.143147   1.817104
H    8.043506  -2.307828  -1.385226
H    3.486431  -1.689680  -4.524364
H    3.790488   2.309207  -4.925307
H    6.853564   3.490891  -5.469359
H    4.828231   5.017072  -3.278070
H    9.562675   1.603414   0.609966
H    8.355764   4.395617   0.132999

