%chk=mol_4058.chk
# wB97XD/Def2SVP opt pop=full gfinput

C 4 H 6 N 2 O 1

1 2
C    1.872322  -0.030935   0.015004
C    4.659668   0.006898  -0.033184
C    6.292127   2.029868   0.003364
O    8.696822   1.116450  -0.077668
C    8.386623  -1.434907  -0.178088
N   10.490475  -2.816523  -0.260140
N    6.033348  -2.201796  -0.130826
H    1.095058   1.884586   0.050815
H    1.196159  -1.033680   1.691607
H    1.138409  -0.993070  -1.661031
H    6.087828   4.058621   0.074909
H   10.300652  -4.648821   0.251296
H   12.095022  -1.976011   0.347880

