%chk=mol_6404.chk
# wB97XD/Def2SVP opt pop=full gfinput

C 4 H 7 N 1 O 2

1 2
O    2.992702   3.366849   2.857058
N    5.376592   4.080297   1.954222
C    5.348700   4.020865  -0.481294
O    7.360483   4.619228  -1.950103
C    9.665023   5.362589  -0.706474
C   11.498775   6.807814  -2.326782
C   10.032064   8.150993  -0.304794
H    3.204900   3.506368   4.683686
H    3.714673   3.490438  -1.655929
H   10.466796   4.077859   0.679470
H   10.990099   7.162024  -4.278359
H   13.498181   6.495197  -2.018190
H   11.024662   8.738566   1.386435
H    8.523742   9.411346  -0.876927

