%chk=mol_6660.chk
# wB97XD/Def2SVP opt pop=full gfinput

C 4 H 2 N 2 S 1

1 2
N    1.703078   0.016271  -0.013549
C    3.894858   0.060925  -0.007559
C    6.588077   0.119563  -0.000208
C    8.005315   2.306203   0.003326
S   11.140446   1.495548   0.012000
N   10.670320  -1.607779   0.011206
C    8.191717  -2.036482   0.004498
H    7.398278   4.257288   0.001361
H    7.587534  -3.992991   0.003156

