%chk=mol_0752.chk
# wB97XD/Def2SVP opt pop=full gfinput

C 4 H 4 O 2

1 2
C    1.859755   0.000113   0.029536
C    4.395068   0.000057  -0.012567
C    5.802650  -2.424802  -0.005178
O    4.763603  -4.495640   0.038399
C    5.758373   2.435649  -0.066103
O    8.069489   2.560220  -0.106033
H    0.752376   1.726000   0.026040
H    0.807461  -1.766195   0.069410
H    7.877834  -2.248472  -0.041952
H    4.572287   4.149461  -0.068162

