%chk=mol_5997.chk
# wB97XD/Def2SVP opt pop=full gfinput

C 4 H 6 N 2 O 1

1 2
O    1.852631  -0.108621  -0.264222
C    4.473587  -0.025096   0.179411
C    5.741158  -2.287986  -1.016200
C    7.480254  -1.576636  -2.717766
N    7.609833   0.993618  -2.870437
C    5.805276   2.075335  -1.367859
N    5.143778   4.413059  -1.221084
H    1.324301   1.657876  -0.196872
H    4.890554   0.158246   2.194142
H    5.243593  -4.212181  -0.560398
H    8.644835  -2.765255  -3.901718
H    8.446036   1.859396  -4.348203
H    6.249986   5.456773  -2.416544

