%chk=mol_2787.chk
# wB97XD/Def2SVP opt pop=full gfinput

C 7 H 6

1 2
C    1.774037   0.164690  -0.011414
C    4.613143   0.003609  -0.004025
C    5.882151  -2.199471   0.004082
C    4.673954  -4.601256   0.002721
C    3.661023  -6.630765   0.001153
C    6.033744   2.302159  -0.003704
C    7.215749   4.238070  -0.002665
H    1.129111   2.132027   0.020636
H    0.978198  -0.768797   1.655589
H    0.992862  -0.711728  -1.715852
H    7.937020  -2.206274   0.010507
H    2.758377  -8.429879  -0.000265
H    8.261334   5.958137  -0.001493

