%chk=mol_2823.chk
# wB97XD/Def2SVP opt pop=full gfinput

C 6 H 10 O 1

1 2
C    1.889726   0.000000   0.000000
C    4.618491   0.000000   0.000000
C    6.867567   0.000000   0.000000
C    9.596332   0.000000   0.000000
C   10.727162   2.672186  -0.044654
C   10.238555   4.148497   2.381150
O   13.400162   2.503509  -0.415400
H    1.145401   1.929221   0.025719
H    1.145079  -0.986626   1.657894
H    1.144985  -0.942217  -1.683481
H   10.296853  -1.046322  -1.647671
H   10.323215  -1.032320   1.644534
H    9.964942   3.735138  -1.650487
H   11.009583   3.151761   4.024928
H    8.219704   4.471073   2.692369
H   11.187802   5.986615   2.305371
H   14.130239   1.703607   1.069623

