%chk=mol_2636.chk
# wB97XD/Def2SVP opt pop=full gfinput

C 5 H 8 O 2

1 2
C    4.699730  -0.994771  -2.873026
C    4.654924   0.033259  -0.191316
C    6.093592   2.515037  -0.043917
C    4.799394   4.894466  -1.072722
O    4.759011   6.002205   1.436078
C    5.854032   3.935090   2.489128
O    6.358248   3.554424   4.684518
H    3.693715  -2.798836  -2.968779
H    6.642028  -1.301417  -3.516232
H    3.796611   0.318853  -4.191318
H    5.524010  -1.353762   1.078618
H    2.691253   0.276883   0.422826
H    8.075027   2.331828  -0.624328
H    2.886179   4.655057  -1.818994
H    5.932134   6.022236  -2.383757

