%chk=mol_0812.chk
# wB97XD/Def2SVP opt pop=full gfinput

C 5 H 10 O 1

1 2
C    2.284585  -0.182699  -1.151372
O    4.793706  -0.306400  -0.184381
C    5.951088   2.006171  -0.151632
C    8.468241   2.287192  -0.034431
C   10.277143   0.100515   0.041971
C    9.664060   4.859922   0.030821
H    1.524744  -2.104059  -1.213866
H    2.272282   0.584795  -3.073923
H    1.075821   0.952611   0.087286
H    4.668984   3.601761  -0.182623
H    9.321924  -1.732576  -0.011754
H   11.403987   0.167297   1.776116
H   11.562838   0.181886  -1.577298
H    8.256950   6.376768  -0.028535
H   10.924413   5.107325  -1.591376
H   10.769209   5.094512   1.764248

