%chk=mol_3207.chk
# wB97XD/Def2SVP opt pop=full gfinput

C 6 H 8 O 1

1 2
C    2.462483   0.690733  -1.298828
C    4.796503  -0.838207  -0.637235
O    6.934293   0.803341  -0.744382
C    9.247563  -0.224915  -0.217375
C    9.836497  -2.603513   0.426927
C   12.383205  -3.317244   0.898055
C   14.528989  -3.932029   1.293442
H    0.770574  -0.495467  -1.264472
H    2.651116   1.532530  -3.179653
H    2.211509   2.250815   0.037095
H    5.013651  -2.380091  -2.003601
H    4.588104  -1.615111   1.271597
H   10.671473   1.241909  -0.399526
H    8.411020  -4.061116   0.610457
H   16.435610  -4.474890   1.642021

