%chk=mol_6200.chk
# wB97XD/Def2SVP opt pop=full gfinput

C 5 H 5 N 1 O 1

1 2
O    3.717356  -2.308414   0.108395
C    3.386767  -0.027382  -0.141767
C    5.433851   1.965466   0.078102
C    8.035550   0.847013  -0.021070
C    9.496857   0.474246   2.019097
C   11.957904  -0.592864   1.844524
N   13.977264  -1.433036   1.710996
H    1.469640   0.725712  -0.469465
H    5.112068   3.013301   1.833375
H    5.207972   3.289881  -1.495945
H    8.723713   0.300750  -1.883963
H    8.837777   0.960359   3.897768

