%chk=mol_0619.chk
# wB97XD/Def2SVP opt pop=full gfinput

C 5 H 8 O 1

1 2
C    1.877651   0.002343   0.061889
C    4.745234  -0.002740  -0.226370
C    5.729593  -2.364898  -1.588938
C    6.459953  -1.311338  -4.076101
C    6.282111   1.186824  -3.964419
O    5.462499   2.186149  -1.704136
H    1.254041   1.741137   0.997813
H    1.232801  -1.616264   1.176657
H    0.937871  -0.045353  -1.783599
H    5.615416   0.168790   1.645101
H    4.308784  -3.858235  -1.741042
H    7.393459  -3.137229  -0.630318
H    7.100892  -2.391241  -5.681802
H    6.732414   2.561429  -5.397663

