%chk=mol_3184.chk
# wB97XD/Def2SVP opt pop=full gfinput

C 6 H 10 O 1

1 2
C    1.365176   0.354172  -0.094373
C    4.251279   0.108810  -0.089195
O    4.923512  -1.462894   1.993963
C    5.124673  -1.108816  -2.523484
C    6.410537  -3.280300  -2.756071
C    5.458096   2.686699   0.208720
C    7.183227   3.383328   1.932283
H    0.680717   1.500235  -1.678247
H    0.689637   1.219591   1.664074
H    0.464910  -1.509589  -0.205791
H    4.343252  -0.601897   3.506217
H    4.647970  -0.096697  -4.250164
H    6.951735  -4.380706  -1.109553
H    6.956101  -3.996204  -4.599235
H    4.862662   4.103710  -1.160802
H    7.926022   2.068230   3.320683
H    7.937190   5.291384   1.948402

