%chk=mol_3737.chk
# wB97XD/Def2SVP opt pop=full gfinput

C 6 H 6 O 1

1 2
O    1.775625   0.129805   0.028119
C    4.464478   0.030462   0.029196
C    5.531965   2.707637   0.000000
C    8.260730   2.707637   0.000000
C   10.509807   2.707637   0.000000
C   13.404640   2.704992   0.000019
C   15.671990   2.703499   0.000038
H    1.175069  -1.607798   0.047054
H    5.079792  -1.030184  -1.639035
H    5.079792  -0.993561   1.720161
H    4.804572   3.748914   1.637542
H    4.804572   3.712953  -1.659860
H   17.684416   2.704765   0.000019

