%chk=mol_5193.chk
# wB97XD/Def2SVP opt pop=full gfinput

C 6 H 11 N 1

1 2
C    2.784512  -0.343571  -0.832708
C    5.361644   0.154920   0.217602
C    6.879359  -2.038542   1.251698
C    7.649592  -0.744533  -1.165413
C    9.532157   1.357126  -1.184443
N    8.003935   3.585226  -0.566502
C    5.918736   2.800650   1.090731
H    2.201096   1.172972  -2.119101
H    1.400306  -0.454687   0.704660
H    2.709055  -2.124241  -1.885191
H    6.092968  -3.925396   1.112085
H    8.013762  -1.740192   2.930984
H    7.440003  -1.704136  -2.953944
H   11.005406   1.049384   0.237539
H   10.420271   1.582664  -3.036847
H    9.079869   4.925571   0.291188
H    6.509748   2.817166   3.075397
H    4.311977   4.082224   0.866817

