%chk=mol_7162.chk
# wB97XD/Def2SVP opt pop=full gfinput

C 6 H 9 N 1

1 2
C    4.110022  -1.034606   2.694863
C    4.378571   0.061529   0.048849
C    5.480603   2.694466   0.084981
C    4.095358   4.837605   0.062172
C    1.278910   5.066224   0.101497
C    8.180454   2.904471   0.074039
N   10.367188   3.067271   0.066329
H    3.316677  -2.942927   2.597372
H    2.849367   0.120772   3.860597
H    5.941828  -1.156210   3.650176
H    2.537675   0.036037  -0.897695
H    5.589923  -1.182969  -1.085213
H    5.081171   6.649530   0.043142
H    0.311446   3.266751   0.394291
H    0.616561   5.882056  -1.679135
H    0.711860   6.329222   1.638733

