%chk=mol_2792.chk
# wB97XD/Def2SVP opt pop=full gfinput

C 6 H 10 O 1

1 2
C    1.712451   0.084206   0.244927
C    4.611234   0.018179   0.118524
C    5.633387  -1.231157   2.529228
C    5.693991  -1.321618  -2.178949
C    4.421336  -2.452638  -4.054540
C    5.558195   2.744052  -0.043010
O    7.597852   3.481027   0.787600
H    0.891497   0.996906  -1.424400
H    1.068451   1.163807   1.892580
H    0.914457  -1.821261   0.391627
H    5.036744  -0.190088   4.218360
H    7.705132  -1.283993   2.551527
H    4.955693  -3.180352   2.709981
H    7.755738  -1.344238  -2.289819
H    2.374743  -2.541776  -4.120038
H    5.435117  -3.348481  -5.600165
H    4.340701   4.059906  -1.112538

