%chk=mol_6802.chk
# wB97XD/Def2SVP opt pop=full gfinput

C 5 H 10 N 2

1 2
C    1.945908   0.007219   0.277450
C    4.790758   0.078839  -0.144715
C    5.732069  -2.215496  -1.690190
N    6.786573  -1.228681  -4.119584
C    6.563964   1.205192  -3.901755
N    5.436818   2.166779  -1.806881
C    6.056969   4.615014  -0.778038
H    1.307634   1.701339   1.278324
H    1.412268  -1.645687   1.401100
H    0.914949  -0.075022  -1.517280
H    5.794070   0.188878   1.664490
H    4.230190  -3.581371  -2.085917
H    7.241903  -3.197303  -0.669927
H    7.241336   2.570670  -5.318483
H    5.029279   4.967806   0.984188
H    5.543587   6.102511  -2.117722
H    8.080979   4.752397  -0.386052

