%chk=mol_1210.chk
# wB97XD/Def2SVP opt pop=full gfinput

C 7 H 12

1 2
C    1.828858   0.085586   0.001965
C    4.705002  -0.008315   0.056106
C    5.823947   2.112204   1.671841
C    8.496304   1.201450   2.224321
C    8.195761  -1.619646   2.726043
C    5.877010  -2.336987   1.233065
C    4.995057  -4.704908   1.090939
H    1.058058  -1.371677  -1.248863
H    1.176279   1.920075  -0.699463
H    1.021945  -0.199744   1.887213
H    5.428843   0.174497  -1.880126
H    4.771521   2.345793   3.443610
H    5.820224   3.928608   0.682720
H    9.711586   1.510458   0.571831
H    9.345338   2.191629   3.829360
H    9.873611  -2.662435   2.120840
H    7.871597  -1.956415   4.742173
H    3.304186  -5.169024   0.027269
H    5.953866  -6.251176   2.040111

