%chk=mol_4712.chk
# wB97XD/Def2SVP opt pop=full gfinput

C 4 H 9 N 1 O 2

1 2
C    3.878757  -3.046597   0.552669
C    6.707092  -2.579967   0.756722
N    7.199327  -0.657700   2.694391
C    9.973427  -0.265299   2.961503
C   10.430494   2.138055   4.496150
O    8.328136   3.611115   4.589880
O   12.437630   2.722339   5.468319
H    3.493253  -4.457656  -0.910583
H    2.868774  -1.312056   0.046336
H    3.102855  -3.751579   2.337402
H    7.415399  -1.938424  -1.080300
H    7.659343  -4.355762   1.236202
H    6.540928  -1.342499   4.385695
H   10.859765   0.014456   1.113030
H   10.826694  -1.870942   3.945937
H    7.012793   2.697301   3.625912

