%chk=mol_2852.chk
# wB97XD/Def2SVP opt pop=full gfinput

C 6 H 10 O 1

1 2
C    1.891729  -0.102612   0.005027
C    4.762110   0.000000   0.000000
C    5.672996   2.572238   0.000000
C    6.423746   4.692322   0.000000
C    7.334632   7.264561   0.000000
C    9.464354   7.613555  -1.906639
O    5.304707   8.910852  -0.641789
H    1.243043  -2.066926   0.004139
H    1.105887   0.834276  -1.665661
H    1.111953   0.830667   1.680609
H    5.472496  -1.006752  -1.664282
H    5.478505  -1.009133   1.660238
H    7.998738   7.792286   1.887647
H    8.810905   7.230527  -3.832516
H   11.061342   6.362254  -1.499082
H   10.141461   9.569724  -1.887081
H    5.995270  10.604803  -0.766794

