%chk=mol_4404.chk
# wB97XD/Def2SVP opt pop=full gfinput

C 5 H 5 N 1 O 1

1 2
C    1.770938   0.230320  -0.087551
C    4.600652  -0.019502  -0.044711
C    5.861912  -2.221940   0.103803
C    4.647252  -4.733329   0.155109
O    5.912140  -6.661133   0.349562
C    6.045669   2.262059  -0.135040
N    7.213689   4.114388  -0.208078
H    1.178925   2.115548   0.532638
H    0.858578  -1.117546   1.188052
H    1.052880  -0.062909  -2.005169
H    7.915741  -2.288269   0.161213
H    2.575016  -4.793404  -0.007181

