%chk=mol_3762.chk
# wB97XD/Def2SVP opt pop=full gfinput

C 5 H 6 O 2

1 2
O    2.021270  -0.019483   0.878798
C    4.573137   0.000000   0.000000
C    4.630018  -1.129092  -2.641384
C    3.974415  -3.887923  -2.477903
O    5.428730  -5.575032  -3.122716
C    5.484023   2.572238   0.000000
C    6.234774   4.692322   0.000000
H    1.987727   0.976988   2.426257
H    5.681462  -1.163108   1.307142
H    6.503908  -0.945978  -3.503420
H    3.242165  -0.235517  -3.890852
H    2.064053  -4.332802  -1.768765
H    6.906174   6.591894  -0.007767

