%chk=mol_1018.chk
# wB97XD/Def2SVP opt pop=full gfinput

C 4 H 9 N 1 O 1

1 2
C    1.732312   0.325694   0.084414
C    4.572476   0.017763  -0.197628
O    5.090620  -1.093358  -2.597920
C    5.926143   2.511408  -0.068276
C    7.524360   3.205656   2.181103
N    8.699751   2.496593  -0.214163
H    1.250715   1.189866   1.900025
H    0.786882  -1.509967  -0.053819
H    0.958053   1.511365  -1.426309
H    5.266270  -1.286809   1.254684
H    6.924259  -0.982544  -2.776083
H    5.000536   3.987228  -1.145439
H    7.729566   1.859547   3.708588
H    7.652389   5.174391   2.721300
H    9.336362   4.061683  -1.154112

