%chk=mol_6622.chk
# wB97XD/Def2SVP opt pop=full gfinput

C 3 H 4 O 3 S 1

1 2
C    2.173280  -0.297689   0.014721
O    4.757329   0.371841   0.026985
S    5.401215   3.366396  -0.044862
O    5.050558   4.451647  -2.516983
O    5.002975   4.578844   2.360022
C    8.766780   3.159925  -0.006671
C   11.034866   3.019234   0.019048
H    2.024105  -2.357282   0.069391
H    1.258822   0.386940  -1.708464
H    1.218590   0.479688   1.675620
H   13.043475   2.904849   0.041536

