%chk=mol_1579.chk
# wB97XD/Def2SVP opt pop=full gfinput

C 5 H 8 N 2

1 2
C    2.881662   0.639994   0.859429
C    5.330917   0.019351  -0.502592
N    7.260063   1.842426   0.157490
C    9.666800   1.722032  -0.723047
N   10.923165  -0.139575  -1.613297
C   11.140238   4.006087  -0.710839
C   12.356012   5.923668  -0.702052
H    1.415046  -0.732515   0.366966
H    2.200529   2.525203   0.343174
H    3.143503   0.602388   2.911992
H    5.012404   0.046733  -2.547426
H    5.935724  -1.887610   0.028818
H    6.615345   3.627235   0.442876
H    9.835987  -1.728570  -1.551862
H   13.458630   7.605978  -0.708326

