%chk=mol_4938.chk
# wB97XD/Def2SVP opt pop=full gfinput

C 5 H 10 N 2

1 2
C   -2.279992  -1.336660  -1.072986
N   -2.384532   1.473155  -0.877494
C   -0.041725   2.063808   0.571000
C    2.297888   1.343879  -1.025895
N    2.398988  -1.468544  -0.842931
C    0.034506  -2.065735   0.559661
C   -0.021429  -0.005272   2.555156
H   -2.089792  -1.942639  -3.041420
H   -4.016764  -2.146653  -0.289733
H   -3.912149   1.952408   0.194869
H   -0.011055   3.997716   1.289474
H    4.021772   2.149393  -0.209382
H    2.142364   1.959816  -2.995499
H    3.908634  -1.952068   0.251768
H   -0.010337  -4.003366   1.268762
H   -1.720936  -0.044598   3.738653
H    1.656572   0.026305   3.767566

