%chk=mol_4363.chk
# wB97XD/Def2SVP opt pop=full gfinput

C 5 H 13 N 1 O 1

1 2
C    1.833960  -0.024283   0.134700
C    4.745121   0.026173   0.130183
C    5.687225  -1.042278   2.670145
C    5.809585  -1.658972  -2.020760
N    5.091035  -0.822447  -4.563103
C    5.698809   2.776745  -0.119714
O    4.846562   3.949981  -2.383852
H    1.032376   0.793987  -1.588164
H    1.078353   1.053390   1.734334
H    1.125880  -1.964030   0.297670
H    4.993526   0.085661   4.262561
H    7.756475  -1.047759   2.758509
H    5.039238  -2.989604   2.949560
H    5.180023  -3.617843  -1.769729
H    7.879459  -1.677359  -1.922154
H    3.189310  -1.074404  -4.796635
H    5.910855  -2.000010  -5.856696
H    7.768816   2.844945  -0.110152
H    5.032341   3.933389   1.463139
H    5.104264   2.692520  -3.727938

