%chk=mol_4542.chk
# wB97XD/Def2SVP opt pop=full gfinput

C 4 H 7 N 1 O 2

1 2
C    1.859661  -0.986154   0.378059
C    4.705342  -0.862150   0.062342
C    5.534857   1.837305  -0.241450
N    7.018103   2.876428   1.395449
O    7.499133   5.385833   0.663899
C    9.144744   6.496028   2.322398
O   10.151023   5.590887   4.191734
H    1.243289  -2.947085   0.598646
H    0.894937  -0.184966  -1.267250
H    1.251490   0.079595   2.043229
H    5.275001  -1.899609  -1.634802
H    5.648713  -1.709390   1.697484
H    4.827891   2.868831  -1.911099
H    9.455263   8.452084   1.685163

