%chk=mol_3381.chk
# wB97XD/Def2SVP opt pop=full gfinput

C 6 H 10 O 1

1 2
C    5.291063  -0.274237  -0.458712
O    3.725992   1.886551  -0.137024
C    4.831501   4.256098  -0.065725
C    2.848630   6.262363   0.313997
C    7.331230   4.700354  -0.308139
C    8.586518   7.128425  -0.237633
C   11.088139   7.385806  -0.535756
H    4.074419  -1.945719  -0.451191
H    6.630803  -0.457862   1.106756
H    6.273097  -0.212726  -2.278254
H    1.866407   5.943680   2.107838
H    1.451347   6.160072  -1.210029
H    3.580426   8.189601   0.343571
H    8.610348   3.117746  -0.587062
H    7.475965   8.822943   0.073775
H   12.327402   5.783072  -0.854572
H   11.955844   9.243897  -0.466611

