%chk=mol_1553.chk
# wB97XD/Def2SVP opt pop=full gfinput

C 5 H 10 N 2

1 2
C    2.052299  -0.544392   0.167335
C    4.925798  -0.488305   0.136382
N    5.816350   2.131006   0.168582
C    8.589069   2.233203   0.146662
C    9.520611   4.970622   0.068710
C   12.293746   5.047950   0.047640
N   14.486489   5.099615   0.043823
H    1.378688  -2.500353   0.122190
H    1.267118   0.437245  -1.477369
H    1.301228   0.347936   1.876328
H    5.597237  -1.453218  -1.568057
H    5.641437  -1.517242   1.786320
H    5.133535   3.010561   1.743537
H    9.311512   1.223276  -1.515617
H    9.343657   1.283899   1.828102
H    8.814382   6.007893   1.718630
H    8.785356   5.925709  -1.615092

