%chk=mol_2899.chk
# wB97XD/Def2SVP opt pop=full gfinput

C 6 H 6 O 1

1 2
C    1.604056   0.384125   0.061435
C    4.128314   0.142807  -0.023943
C    5.395414  -2.403013  -0.023357
C    6.065435  -3.109620  -2.701628
O    5.257558  -5.010345  -3.762161
C    5.648051   2.372079  -0.036585
C    6.931761   4.243153  -0.038909
H    0.695117   2.225379   0.088364
H    0.371463  -1.257046   0.092408
H    4.156264  -3.865397   0.761012
H    7.127178  -2.383323   1.109912
H    7.413849  -1.846603  -3.669621
H    8.058983   5.910969  -0.031067

