%chk=mol_2866.chk
# wB97XD/Def2SVP opt pop=full gfinput

C 6 H 14 O 1

1 2
C    1.829179  -0.035300  -0.167241
C    4.693721   0.072320   0.026985
C    5.661222   2.792921  -0.079217
C    8.547950   2.888843   0.125553
C    9.555249   5.602547   0.054027
C   12.411891   5.677248   0.393195
O    8.935060   6.758171  -2.298455
H    1.179756  -1.997611  -0.094392
H    1.175164   0.791682  -1.946815
H    0.941669   0.993127   1.392558
H    5.521175  -1.028842  -1.520530
H    5.288568  -0.818648   1.800096
H    4.821636   3.888489   1.466938
H    5.048177   3.670340  -1.853292
H    9.358755   1.804764  -1.445187
H    9.144536   1.974291   1.886892
H    8.665661   6.725233   1.548763
H   13.367337   4.623820  -1.111178
H   12.972195   4.881257   2.217178
H   13.099865   7.626235   0.283157
H    9.704726   5.761151  -3.637005

