%chk=mol_3498.chk
# wB97XD/Def2SVP opt pop=full gfinput

C 7 H 10

1 2
C    5.306067  -1.904523  -1.388684
C    4.645174   0.072093   0.602728
C    5.720938   2.707637   0.000000
C    4.800301   4.593225   1.936856
C    3.373369   6.617783   1.406580
C    8.449702   2.707637   0.000000
C   10.698779   2.707637   0.000000
H    4.367422  -3.695189  -0.949814
H    7.341586  -2.265612  -1.452500
H    4.690187  -1.301776  -3.268999
H    5.323699  -0.592278   2.447895
H    2.577927   0.186327   0.734612
H    5.043755   3.269680  -1.879049
H    5.348246   4.258214   3.892344
H    2.776971   7.048452  -0.508223
H    2.780203   7.899036   2.894985
H   12.712358   2.713817   0.002003

