%chk=mol_6288.chk
# wB97XD/Def2SVP opt pop=full gfinput

C 4 H 6 N 2 O 1

1 2
O    2.260736  -0.121547  -1.310015
C    4.287070   0.208323  -0.236310
N    5.530850   2.483157   0.074512
N    7.891459   2.678460   1.334166
C    8.437684   5.429883   1.432280
C    6.282621   6.608523   0.056389
C    4.678773   4.801888  -0.655527
H    5.346678  -1.378914   0.603201
H    9.207842   1.872152   0.174478
H   10.238536   5.852331   0.506995
H    8.507509   6.070934   3.396839
H    6.046198   8.606928  -0.261992
H    2.902960   5.001009  -1.646821

