%chk=mol_4872.chk
# wB97XD/Def2SVP opt pop=full gfinput

C 6 H 9 N 1

1 2
C    1.225979  -0.091085   0.382896
N    3.741507   0.944920  -0.026305
C    1.571081   2.644067  -0.364887
C    1.173236   4.780591   1.497816
C    0.503782   7.009145  -0.134964
C    0.338601   6.361744  -2.584427
C    0.870654   3.599758  -2.972445
H    0.749541  -0.525401   2.324892
H    0.555391  -1.435171  -1.007186
H    4.460037   0.401340  -1.732123
H    2.880396   5.175582   2.594235
H   -0.387942   4.361110   2.791239
H    0.216865   8.893542   0.599535
H   -0.102007   7.651917  -4.103654
H   -0.824336   2.649755  -3.681640
H    2.412689   3.348368  -4.328795

