%chk=mol_0864.chk
# wB97XD/Def2SVP opt pop=full gfinput

C 4 H 4 O 2

1 2
O    2.288855   0.176217   0.668339
C    4.508924   0.071602   0.022242
C    6.034160  -2.343808  -0.118769
C    8.480788  -1.314777  -0.978481
C    8.242683   1.162635  -1.227906
O    5.903901   2.161752  -0.662349
H    5.217553  -3.631222  -1.509249
H    6.184998  -3.210512   1.747713
H   10.168578  -2.401747  -1.339287
H    9.633786   2.528567  -1.817690

