%chk=mol_6436.chk
# wB97XD/Def2SVP opt pop=full gfinput

C 5 H 7 N 1 S 1

1 2
C    1.751171  -0.080994   0.020201
C    4.567355   0.083979   0.023678
C    5.992832   2.275552   0.099248
N    5.161352   4.683837   0.173779
S    9.170179   1.665529   0.092653
C    8.691757  -1.520266  -0.009619
C    6.162491  -2.113016  -0.037662
H    0.849073   1.778856   0.051382
H    1.096287  -1.130226   1.680118
H    1.097477  -1.072779  -1.675412
H    6.420250   6.096729  -0.145055
H    3.357930   5.122707  -0.296876
H   10.281622  -2.802067  -0.039628
H    5.471381  -4.038402  -0.093976

