%chk=mol_5785.chk
# wB97XD/Def2SVP opt pop=full gfinput

C 5 H 11 N 1 O 1

1 2
N    1.264113  -0.342475  -0.944806
C    4.046452  -0.508676  -0.710291
C    4.967939  -2.721243  -2.364501
O    4.000456  -2.468228  -4.868256
C    5.305463   1.993340  -1.539787
C    4.743326   4.159854   0.225973
C    3.616218   6.311270  -0.489231
H    0.656642   1.224335   0.007578
H    0.462662  -1.850665  -0.049076
H    4.538404  -0.898508   1.265209
H    4.291738  -4.525327  -1.607836
H    7.032276  -2.793639  -2.458515
H    2.316577  -1.731159  -4.632286
H    4.742268   2.470930  -3.477984
H    7.363299   1.738699  -1.573953
H    5.332335   3.945181   2.183333
H    3.016022   6.618048  -2.426862
H    3.279299   7.822313   0.857161

