%chk=mol_4504.chk
# wB97XD/Def2SVP opt pop=full gfinput

C 4 H 7 N 1 O 2

1 2
C    1.845204   0.206698  -0.237463
C    4.624424  -0.191335   0.087646
C    5.850176  -2.412368   0.020919
N    4.898623  -4.780554  -0.437755
C    6.089472   2.139529   0.607868
O    8.157702   2.363915  -0.867800
O    5.423552   3.744643   2.118459
H    1.489161   1.628339  -1.699185
H    0.995905   0.863945   1.531396
H    0.856934  -1.516392  -0.807612
H    7.880423  -2.488713   0.373467
H    2.996501  -4.949779  -0.207813
H    5.855902  -6.197980   0.448149
H    8.267306   1.067941  -2.176643

