%chk=mol_0309.chk
# wB97XD/Def2SVP opt pop=full gfinput

C 5 H 9 N 1

1 2
C    1.790478  -0.021883  -0.425510
C    3.793795   0.591484   0.993845
C    5.542567   2.599658   0.166428
C    4.639844   5.346678   0.556865
C    7.346027   5.814574   1.503220
N    7.486018   3.091611   2.124052
H    0.497300  -1.495643   0.180053
H    1.384602   0.924019  -2.200718
H    4.141618  -0.386789   2.766143
H    6.359609   2.245184  -1.708312
H    3.186381   5.614055   2.010895
H    4.092712   6.376560  -1.148330
H    8.673578   6.403658   0.025474
H    7.522641   7.086586   3.121223
H    9.190343   2.272377   1.771769

