%chk=mol_5140.chk
# wB97XD/Def2SVP opt pop=full gfinput

C 4 H 6 N 2 O 1

1 2
C    1.826798  -0.077913  -0.243907
N    4.538385   0.071073   0.191410
C    5.934137  -2.289309   0.081069
C    5.880431   2.351065   0.258930
O    8.195969   2.441677   0.420256
C    4.487552   4.734236   0.116143
N    3.314806   6.592631  -0.010280
H    0.863851   1.683481   0.229186
H    1.036723  -1.589694   0.924208
H    1.506679  -0.508034  -2.240384
H    5.072044  -3.644129   1.382750
H    7.917556  -2.040299   0.601046
H    5.834832  -3.024582  -1.848662

