%chk=mol_5760.chk
# wB97XD/Def2SVP opt pop=full gfinput

C 6 H 9 N 1

1 2
C    2.286512  -0.475342   0.007162
C    5.021909   0.433635  -0.041007
C    5.429863   2.866658   1.376703
C    7.254677   2.519232   3.088550
C    8.222312  -0.057089   3.054837
C    6.480702  -2.210243   3.644356
N    6.855095  -1.446774   1.016181
H    2.108122  -2.319582  -0.914873
H    1.070360   0.854081  -1.012950
H    1.537727  -0.639162   1.928182
H    5.560992   0.750221  -2.018511
H    4.429480   4.606453   1.019696
H    7.955917   3.956595   4.360524
H   10.248268  -0.337807   3.095485
H    7.325372  -4.000248   4.168717
H    4.692605  -1.828310   4.560400

