%chk=mol_3402.chk
# wB97XD/Def2SVP opt pop=full gfinput

C 6 H 14 O 1

1 2
C    4.484622  -1.225639   0.623232
O    6.986903  -0.340340   0.218339
C    7.121282   2.352879   0.311673
C    9.863898   3.252445  -0.128634
C   11.618471   2.171522   1.920415
C   10.805171   2.373609  -2.734264
C    9.935405   6.153855  -0.014853
H    4.500799  -3.289182   0.528160
H    3.215520  -0.506938  -0.842969
H    3.808516  -0.656170   2.492927
H    6.450297   2.999543   2.163472
H    5.872324   3.142596  -1.142264
H   10.987492   2.731108   3.811615
H   13.557840   2.855697   1.677302
H   11.676883   0.102914   1.860738
H    9.579928   3.082502  -4.245893
H   10.849126   0.309386  -2.872686
H   12.722506   3.063473  -3.104782
H    8.716097   6.989171  -1.465048
H   11.854951   6.868399  -0.318721
H    9.290688   6.845778   1.827252

