%chk=mol_1322.chk
# wB97XD/Def2SVP opt pop=full gfinput

C 5 H 10 N 2

1 2
C    5.218573  -0.021637  -3.147698
C    4.604186   0.747368  -0.443500
C    4.528029   3.595941  -0.113554
C    2.276685   4.772919  -0.116105
N    6.757906   4.925174   0.239542
C    9.196277   4.122721   0.341889
N   11.147098   5.524312   0.733478
H    5.297810  -2.083782  -3.299386
H    7.042027   0.733233  -3.766697
H    3.765997   0.654733  -4.458941
H    5.966697  -0.094940   0.869142
H    2.773797  -0.082222   0.071110
H    0.526534   3.733702  -0.380648
H    2.106156   6.801332   0.128974
H    6.500772   6.805565   0.486945
H    9.466697   2.080494   0.055086
H   10.614157   7.363942   0.968863

