%chk=mol_0984.chk
# wB97XD/Def2SVP opt pop=full gfinput

C 4 H 7 N 1 O 1

1 2
C    1.912497  -0.033977  -0.122398
C    4.737695  -0.057202   0.067652
C    5.937520  -2.592364   0.129219
O    4.729663  -4.551349  -0.134719
C    6.128438   2.056438   0.218963
N    8.693855   2.391845   0.373410
H    1.151335   1.891049  -0.110209
H    1.069094  -1.048023   1.472777
H    1.296333  -0.937796  -1.878860
H    7.996660  -2.632237   0.427891
H    5.153567   3.871841   0.243775
H    9.780032   0.964913  -0.316038
H    9.301270   4.117978  -0.230849

