%chk=mol_5548.chk
# wB97XD/Def2SVP opt pop=full gfinput

C 6 H 11 N 1

1 2
C    1.940295   0.111513   0.734858
C    4.729833   0.043407  -0.014456
C    5.440767  -2.484499  -1.271937
C    5.072365  -2.027166  -4.043409
C    7.058770  -0.699652  -5.581174
C    4.949646   0.782139  -4.413758
N    5.206630   2.030000  -1.931073
H    1.442938   1.944547   1.556870
H    1.534193  -1.345069   2.146389
H    0.691300  -0.218604  -0.885809
H    5.878503   0.369933   1.677359
H    4.278132  -4.056864  -0.598155
H    7.428551  -2.941151  -0.901777
H    3.655713  -3.190198  -4.937987
H    8.944773  -0.512116  -4.810317
H    7.020748  -0.962381  -7.613895
H    3.490438   1.530432  -5.644706
H    7.019671   2.655235  -1.725547

