%chk=mol_4683.chk
# wB97XD/Def2SVP opt pop=full gfinput

C 5 H 10 N 2

1 2
C   -3.161663   1.426082   0.989555
C   -2.043096  -0.682682  -0.553425
C   -0.490441  -2.727895   0.659892
N    2.060482  -2.658750  -0.386166
C    3.227747  -0.144923  -0.118013
C    1.437137   2.072311   0.561381
N   -1.038102   1.922645  -0.703980
H   -4.963498   2.192063   0.389321
H   -2.850368   1.477331   3.010731
H   -3.015096  -1.315117  -2.239061
H   -0.432936  -2.527225   2.722283
H   -1.346373  -4.568262   0.254565
H    3.167162  -3.995845   0.440779
H    4.710785  -0.242849   1.324793
H    4.171911   0.280776  -1.910513
H    1.236845   2.167497   2.626115
H    2.342864   3.850336   0.002419

