%chk=mol_1699.chk
# wB97XD/Def2SVP opt pop=full gfinput

C 5 H 12 N 2

1 2
C    4.146513  -0.914760  -2.688570
N    4.351604   0.115254  -0.142466
C    6.048371   2.313176  -0.168034
C    4.595115   4.749826  -0.862339
N    5.881489   6.041889   1.283086
C    6.161830   3.513360   2.510558
C    8.637126   3.253485   3.933900
H    2.842734  -2.521140  -2.678006
H    5.977128  -1.586142  -3.382931
H    3.394062   0.483071  -4.016651
H    4.933924  -1.282916   1.048156
H    7.883087   2.064734  -1.097836
H    2.534123   4.686823  -0.641657
H    5.030130   5.544060  -2.721924
H    7.557336   6.847782   0.775714
H    4.545547   3.068462   3.738634
H   10.266674   3.754451   2.759076
H    8.897077   1.302021   4.571909
H    8.653528   4.469448   5.607933

