%chk=mol_5512.chk
# wB97XD/Def2SVP opt pop=full gfinput

C 5 H 11 N 1 O 1

1 2
N    1.925215   0.027212  -0.091633
C    4.663768  -0.000416   0.081901
C    5.692630   2.119555   1.739587
C    8.384242   1.247578   2.235584
C    8.126124  -1.598746   2.656879
O   10.265465  -2.907892   1.716816
C    5.690589  -2.412122   1.310336
H    1.320200  -1.412495  -1.218703
H    1.332635   1.661315  -0.920637
H    5.461252   0.177710  -1.824417
H    4.647630   2.259867   3.525303
H    5.627850   3.962642   0.803474
H    9.598297   1.652811   0.605166
H    9.217744   2.194803   3.873202
H    7.975570  -2.015015   4.680814
H   10.383459  -2.602871  -0.090556
H    5.992718  -3.906064  -0.088760
H    4.356367  -3.138457   2.719751

