%chk=mol_5822.chk
# wB97XD/Def2SVP opt pop=full gfinput

C 4 H 8 N 2 O 1

1 2
N    1.716022  -0.120300   0.433938
C    4.255399   0.042028   0.018784
N    5.488974  -1.991015  -0.583188
C    5.701134   2.464411   0.240128
C    4.474267   4.682231   0.090008
C    8.509796   2.260377   0.618016
O    9.667310   1.043412  -1.481318
H    0.967483   1.246879   1.548366
H    1.035097  -1.853500   0.869803
H    4.247046  -3.464662  -0.737806
H    2.460480   4.812396  -0.259459
H    5.498536   6.455947   0.220833
H    8.936515   1.176543   2.329560
H    9.390654   4.120812   0.826906
H    8.671387  -0.508790  -1.715909

