%chk=mol_1508.chk
# wB97XD/Def2SVP opt pop=full gfinput

C 6 H 15 N 1

1 2
C    1.811246  -0.216506  -0.034242
C    4.698690   0.014834  -0.069315
N    5.661979  -1.456469  -2.217915
C    5.716535   2.796209  -0.082487
C    4.874076   4.293080  -2.434648
C    4.785599   4.221176   2.285699
C    8.636200   2.778918  -0.005272
H    0.999098   0.689599   1.636276
H    1.239245  -2.206860   0.034204
H    0.942520   0.618583  -1.715097
H    5.408472  -0.908486   1.648200
H    4.910453  -0.785465  -3.859388
H    5.059231  -3.280867  -2.072557
H    5.549011   3.421217  -4.185403
H    5.625148   6.223907  -2.387707
H    2.814067   4.445883  -2.547899
H    5.254875   3.182582   4.014572
H    2.738232   4.517693   2.250853
H    5.662772   6.093214   2.424160
H    9.331506   1.722334   1.634424
H    9.392261   4.703340   0.125289
H    9.444945   1.920774  -1.706366

