%chk=mol_3574.chk
# wB97XD/Def2SVP opt pop=full gfinput

C 6 H 10 O 1

1 2
O    1.926878   0.084546  -0.046487
C    4.604053  -0.010753   0.005877
C    5.639850   2.125602   1.635596
C    8.294442   1.251112   2.303387
C    7.964081  -1.556246   2.592383
C    9.486992  -3.061319   3.939229
C    5.591152  -2.414560   1.276000
H    1.340326  -1.389894  -0.973133
H    5.318275   0.146926  -1.934286
H    4.485794   2.376898   3.341489
H    5.637318   3.935506   0.632775
H    9.595084   1.646235   0.742190
H    8.990485   2.167648   4.019334
H    9.109028  -5.068756   4.125386
H   11.141580  -2.318637   4.897546
H    5.980189  -3.872559  -0.138082
H    4.219796  -3.161039   2.635412

