%chk=mol_5390.chk
# wB97XD/Def2SVP opt pop=full gfinput

C 4 H 7 N 1 O 2

1 2
C    6.720943  -2.347512   0.051571
O    5.000404  -0.283194   0.174384
C    5.993474   2.097785   0.011508
C    8.409300   2.807509  -0.250615
N    9.080191   5.303668  -0.381687
C   11.496584   6.183599  -0.643886
O   12.020510   8.434132  -0.752848
H    5.631063  -4.095963   0.218301
H    8.068072  -2.281315   1.620308
H    7.707248  -2.378353  -1.766724
H    4.452705   3.445916   0.132564
H    9.940602   1.448721  -0.369782
H    7.734725   6.665574  -0.281853
H   12.942225   4.686880  -0.749050

