%chk=mol_6799.chk
# wB97XD/Def2SVP opt pop=full gfinput

C 5 H 8 N 2

1 2
C    1.806162  -0.020126  -0.014400
C    4.594510   0.094978  -0.000756
C    6.262817   2.088185   0.008126
N    8.711468   1.245500   0.019615
C    8.571816  -1.238016   0.018009
C   10.724309  -3.028003   0.027552
N    6.098014  -2.017774   0.005235
H    0.984056   1.878558   0.002438
H    1.108683  -1.033170   1.649901
H    1.124274  -0.997057  -1.706423
H    5.835210   4.089254   0.006803
H   10.085072  -4.994716   0.043672
H   11.900022  -2.717710   1.699525
H   11.893917  -2.742748  -1.653095
H    5.503090  -3.831004   0.001342

