%chk=mol_5769.chk
# wB97XD/Def2SVP opt pop=full gfinput

C 4 H 10 N 2 O 1

1 2
N    1.705875  -0.702222   0.270136
C    4.459810  -0.529860   0.329795
C    5.306332   2.153267  -0.316888
C    8.170477   2.427108  -0.190277
O    9.308640   0.786069  -2.007210
N   11.940178   1.048269  -1.843617
C   12.971761  -0.445144  -3.469084
H    1.177677  -2.520592   0.625480
H    1.074574  -0.300901  -1.505564
H    5.250661  -1.891975  -1.013139
H    5.123350  -1.049705   2.220145
H    4.440819   3.506727   0.992012
H    4.661652   2.627891  -2.229310
H    8.861890   1.950046   1.704212
H    8.700602   4.382823  -0.620718
H   15.043014  -0.518050  -3.643732
H   11.869823  -1.688451  -4.728265

