%chk=mol_4078.chk
# wB97XD/Def2SVP opt pop=full gfinput

C 5 H 7 N 1 O 1

1 2
C    1.578602   0.049265   0.065328
C    4.114463  -0.024075   0.036510
C    5.733183   2.306430  -0.092181
O    7.977346   1.860927   1.356899
N    9.549429   0.029461   0.199895
C    8.330726  -2.038013  -0.317644
C    5.555360  -2.465223   0.195946
H    0.555485   1.827025  -0.024623
H    0.457484  -1.666096   0.189143
H    4.772333   3.946920   0.722877
H    6.251932   2.754295  -2.047122
H    9.396248  -3.638800  -1.117263
H    4.858902  -3.816396  -1.209160
H    5.386551  -3.316035   2.074617

