%chk=mol_6212.chk
# wB97XD/Def2SVP opt pop=full gfinput

C 5 H 7 N 1 O 1

1 2
O    5.017695  -1.816688  -2.320036
C    4.508622  -0.406216  -0.089573
C    6.020611   2.057931  -0.117031
C    8.840215   1.654399   0.139216
C   10.462185   2.298134  -1.707311
C    9.788650   0.601802   2.439825
N   10.517214  -0.251012   4.320859
H    4.101556  -3.405135  -2.177305
H    4.957149  -1.571364   1.560007
H    2.484234   0.019729  -0.055520
H    5.378822   3.267507   1.439726
H    5.609539   3.075756  -1.876838
H    9.802709   3.100096  -3.477606
H   12.488256   2.017491  -1.514729

