%chk=mol_6623.chk
# wB97XD/Def2SVP opt pop=full gfinput

C 4 H 8 O 2 S 1

1 2
C    7.463908  -2.286814  -0.792060
S    5.242043   0.012340   0.203845
O    3.406439   0.350034  -1.801003
O    4.474550  -0.595245   2.760380
C    7.126120   2.875691   0.452495
C    7.267093   4.449379  -1.910362
C    5.605192   5.270711   0.249236
H    8.968413  -2.412254   0.613311
H    8.221631  -1.729780  -2.627494
H    6.490057  -4.098892  -0.949304
H    8.710787   2.836838   1.736961
H    6.342601   3.807269  -3.623323
H    8.980300   5.519739  -2.251741
H    6.201174   6.878301   1.369296
H    3.571960   5.146707   0.000283

