%chk=mol_5326.chk
# wB97XD/Def2SVP opt pop=full gfinput

C 5 H 8 N 2

1 2
C    1.984760  -0.124949  -0.564631
C    4.482865   0.279831   0.663936
C    6.597884   1.751776  -0.510283
C    6.736307   2.300609  -3.295834
N    6.960277  -0.217942  -4.517296
C    6.997391  -1.803838  -2.644105
N    6.772986  -1.027425  -0.176878
H    0.708269   1.427423  -0.075041
H    1.137162  -1.882281   0.124193
H    2.074579  -0.233117  -2.626341
H    4.318516   0.329417   2.705502
H    7.928573   2.781091   0.644472
H    8.404122   3.438376  -3.747497
H    5.041015   3.277314  -3.966365
H    7.267660  -3.851904  -2.883325

