%chk=mol_4538.chk
# wB97XD/Def2SVP opt pop=full gfinput

C 4 H 7 N 1 O 2

1 2
C    1.309807   0.216374  -0.041631
C    4.106942  -0.303622   0.061454
C    4.955297  -3.009502  -0.226540
N    5.632329   1.591584   0.369649
O    8.171516   0.808066   0.397957
C    9.722622   2.835818   0.804986
O    9.161997   5.051824   1.131133
H    0.936699   2.245675   0.069164
H    0.383085  -0.729907   1.544039
H    0.542314  -0.515612  -1.814780
H    3.324255  -4.277641  -0.226843
H    6.194995  -3.533769   1.340798
H    5.967472  -3.223400  -2.015015
H   11.682684   2.137753   0.800016

