%chk=mol_4478.chk
# wB97XD/Def2SVP opt pop=full gfinput

C 5 H 11 N 1 O 1

1 2
C    2.257524  -0.648535   0.299389
C    4.234007  -1.965466   1.916863
C    6.889450  -0.981807   1.343841
N    8.820392  -2.222507   2.869379
C    9.830714  -4.620116   2.010309
C    9.437765  -1.263641   5.214907
O    8.544396   0.640447   6.176948
H    0.371199  -1.375815   0.736181
H    2.616779  -0.966274  -1.713112
H    2.254916   1.390706   0.644434
H    4.140220  -4.006559   1.576239
H    3.786217  -1.674108   3.918857
H    6.958519   1.056603   1.717119
H    7.363280  -1.255005  -0.653807
H    8.300603  -6.005115   1.908113
H   11.282100  -5.319957   3.303015
H   10.662950  -4.362282   0.137062
H   10.890152  -2.391411   6.197187

