%chk=mol_4502.chk
# wB97XD/Def2SVP opt pop=full gfinput

C 4 H 10 N 2 O 1

1 2
C    2.672753  -0.641524  -2.287400
C    4.499627  -0.676390  -0.065328
C    5.721202   1.893732   0.390323
N    7.364395   2.622486  -1.674638
C    7.998058   5.096025  -2.021478
N    9.681917   5.393033  -3.932577
O    7.186156   6.892266  -0.823165
H    1.764305  -2.488051  -2.493834
H    3.651064  -0.214314  -4.059094
H    1.191208   0.774655  -2.005925
H    5.956511  -2.110238  -0.402682
H    3.466362  -1.240662   1.638827
H    6.888165   1.827309   2.099920
H    4.276507   3.349558   0.677089
H    8.746616   1.396621  -2.151963
H    9.461745   4.237635  -5.434247
H    9.989432   7.229487  -4.373677

