%chk=mol_1268.chk
# wB97XD/Def2SVP opt pop=full gfinput

C 6 H 13 N 1

1 2
C    1.840820  -0.117654   0.176066
C    4.750488  -0.178655   0.029064
C    5.767425  -1.302116   2.520044
C    5.626036  -1.813098  -2.261756
N    4.780818  -4.447678  -2.211055
C    5.650206   2.528132  -0.441005
C    7.225954   3.916892   0.974588
H    1.007148   0.571793  -1.591130
H    1.195233   1.129792   1.699922
H    1.055204  -1.997403   0.545394
H    5.259297  -0.122076   4.145454
H    7.830250  -1.483832   2.480133
H    4.984039  -3.183338   2.885669
H    7.696609  -1.796430  -2.381338
H    4.927102  -0.970148  -4.023095
H    5.594402  -5.359169  -0.722839
H    5.422701  -5.343427  -3.791282
H    4.898775   3.415037  -2.144612
H    8.075234   3.220056   2.704500
H    7.704924   5.833982   0.417252

