%chk=mol_2131.chk
# wB97XD/Def2SVP opt pop=full gfinput

C 7 H 10

1 2
C    1.889726   0.000000   0.000000
C    4.618491   0.000000   0.000000
C    6.867567   0.000000   0.000000
C    9.596332   0.000000   0.000000
C   10.330490   2.730068   0.162006
C   10.666918   4.017445   2.685528
C   12.936668   3.438451   1.079922
H    1.145344   1.929240   0.022507
H    1.145079  -0.983905   1.659501
H    1.145004  -0.945014  -1.681913
H   10.344984  -0.822352  -1.744368
H   10.346610  -1.090769   1.590790
H    9.583274   3.838544  -1.395960
H   10.387012   2.917756   4.391610
H   10.069349   5.971081   2.844926
H   13.883346   5.004902   0.157395
H   14.200214   1.953013   1.708123

