%chk=mol_0853.chk
# wB97XD/Def2SVP opt pop=full gfinput

C 5 H 10 O 1

1 2
O    1.924478   0.064175  -0.033184
C    4.596797   0.020522   0.018897
C    5.623768   2.134635   1.669271
C    8.285485   1.238564   2.254481
C    8.002272  -1.601789   2.663947
C    5.605117  -2.383927   1.252076
H    1.368086  -1.409339  -0.979729
H    5.311264   0.203372  -1.916844
H    4.503576   2.335324   3.400940
H    5.596802   3.961376   0.700654
H    9.527205   1.594570   0.635817
H    9.095441   2.191799   3.901151
H    9.666894  -2.628798   1.989882
H    7.790566  -2.019588   4.681759
H    6.007326  -3.828944  -0.174648
H    4.226127  -3.204163   2.561392

