%chk=mol_2492.chk
# wB97XD/Def2SVP opt pop=full gfinput

C 5 H 10 O 2

1 2
C    2.273133  -0.138309   0.384106
C    5.084648   0.019143  -0.204582
C    5.543342   0.361259  -3.026661
O    6.139588   2.131195   1.136387
C    8.420846   1.176506   2.211962
C    7.811183  -1.553865   2.712834
O    6.305223  -2.270638   0.591843
H    1.968792  -0.382084   2.419927
H    1.394882  -1.756841  -0.561891
H    1.287735   1.593039  -0.176236
H    7.574400   0.442026  -3.429891
H    4.713620   2.128739  -3.715372
H    4.771729  -1.222577  -4.111534
H    9.930587   1.377648   0.809578
H    8.926461   2.230349   3.913680
H    9.485821  -2.752915   2.857417
H    6.661417  -1.775228   4.420145

