%chk=mol_3444.chk
# wB97XD/Def2SVP opt pop=full gfinput

C 5 H 10 O 2

1 2
C    2.926109   3.980633   0.430839
O    5.567285   4.365626   0.756420
C    7.002324   3.072033  -1.131436
C    9.802293   3.604180  -0.696345
C   11.447697   1.952257  -2.387801
C   10.271645   6.386745  -1.179321
O   11.746292   7.211856  -2.771529
H    1.929203   5.039937   1.898098
H    2.459403   1.975860   0.627068
H    2.314877   4.678754  -1.417578
H    6.411576   3.718905  -3.009824
H    6.630180   1.040313  -0.972793
H   10.292752   3.266222   1.288623
H   11.032315   2.272906  -4.390854
H   11.142619  -0.052856  -1.980603
H   13.455133   2.363443  -2.093344
H    9.218670   7.700558   0.053271

