%chk=mol_0590.chk
# wB97XD/Def2SVP opt pop=full gfinput

C 5 H 10 O 1

1 2
C    1.398530   2.416185  -0.381196
C   -1.370335   2.335380   0.415702
C   -2.613794  -0.105730  -0.467858
O   -1.255761  -2.253479   0.442272
C    1.279004  -2.320527  -0.482693
C    2.748078  -0.007011   0.397447
H    1.515239   2.638813  -2.438805
H    2.335550   4.058054   0.463493
H   -2.384645   3.974245  -0.337033
H   -1.464746   2.434553   2.484366
H   -4.541333  -0.220985   0.270930
H   -2.727933  -0.188481  -2.533631
H    2.169198  -4.039535   0.245513
H    1.253569  -2.456020  -2.549978
H    2.896591  -0.045259   2.464751
H    4.669494  -0.039590  -0.369120

