%chk=mol_5462.chk
# wB97XD/Def2SVP opt pop=full gfinput

C 4 H 10 N 2 O 1

1 2
C    2.778068  -0.143014   0.031880
O    4.015781   1.755915   1.493734
N    5.131835   3.443421  -0.223630
C    3.802564   5.846529  -0.345026
C    7.733288   3.415680  -0.083620
N    9.236396   5.206687  -0.770045
C   11.896110   4.598743  -0.372144
H    1.982398  -1.537802   1.333372
H    4.120567  -1.101748  -1.217135
H    1.233386   0.682399  -1.069415
H    1.769917   5.537162  -0.568826
H    4.446753   6.956743  -1.966978
H    4.110513   6.942552   1.382391
H    8.455788   1.611596   0.687615
H   13.020024   6.325669  -0.570074
H   12.560632   3.243299  -1.785432
H   12.248014   3.847615   1.526351

