%chk=mol_5867.chk
# wB97XD/Def2SVP opt pop=full gfinput

C 4 H 5 N 1 O 2

1 2
N    2.479831  -0.491121   0.086379
C    5.043471  -0.379268   0.079085
O    6.364919  -2.271432   0.154145
C    6.063508   2.213965  -0.023678
C    8.572270   2.542003  -0.008428
C    9.629213   5.121952  -0.108621
O    8.321334   7.028326  -0.211215
H    1.343633   1.040426   0.034884
H    1.673164  -2.222224   0.159890
H    4.760863   3.789600  -0.109207
H    9.901277   0.987363   0.076685
H   11.710595   5.209446  -0.083072

