%chk=mol_3398.chk
# wB97XD/Def2SVP opt pop=full gfinput

C 6 H 10 O 1

1 2
C    4.995189  -1.653983   0.355136
O    7.528801  -0.772067   0.264014
C    7.638311   1.928409   0.187310
C   10.336934   2.873158  -0.059526
C   12.338136   1.307936  -0.202314
C   10.784327   5.593533  -0.152709
C    9.033005   7.418385  -0.021108
H    5.027976  -3.716524   0.473924
H    3.979461  -1.109761  -1.362247
H    4.023624  -0.911906   2.023273
H    6.803449   2.664665   1.935760
H    6.529287   2.591608  -1.433452
H   12.099010  -0.730115  -0.142618
H   14.262651   1.990978  -0.381479
H   12.746807   6.187984  -0.349089
H    7.030046   7.043935   0.177445
H    9.598353   9.389463  -0.111551

