%chk=mol_6082.chk
# wB97XD/Def2SVP opt pop=full gfinput

C 6 H 13 N 1

1 2
C    1.839913   0.105314   0.223366
C    4.723805   0.018236  -0.023659
C    5.632140  -2.558557  -0.998002
C    5.098236  -2.892963  -3.816226
C    6.057631  -0.642450  -5.345185
N    5.039767   1.747997  -4.395786
C    5.714834   2.140568  -1.739701
H    1.238375   1.911704   1.036931
H    1.170761  -1.399645   1.476897
H    0.885261  -0.113157  -1.597480
H    5.509837   0.299994   1.874684
H    4.758803  -4.099931   0.076250
H    7.678127  -2.705445  -0.688975
H    6.004491  -4.628828  -4.490613
H    3.062244  -3.129916  -4.121511
H    8.129507  -0.591031  -5.318200
H    5.486366  -0.873488  -7.321064
H    5.743974   3.199892  -5.450046
H    7.775619   2.283148  -1.560555
H    4.940764   3.958296  -1.118227

