%chk=mol_1256.chk
# wB97XD/Def2SVP opt pop=full gfinput

C 6 H 5 N 1

1 2
C    1.952011   0.553822   0.241696
C    4.455256   0.210591  -0.001134
C    5.640265  -2.387745  -0.051476
C    6.615685  -3.002246  -2.579608
N    7.390114  -3.539495  -4.561062
C    6.049013   2.386989  -0.126101
C    7.396294   4.207664  -0.238181
H    1.126655   2.434893   0.302432
H    0.648743  -1.025800   0.371615
H    4.261503  -3.828396   0.515480
H    7.173155  -2.475258   1.341384
H    8.590109   5.825497  -0.349977

