%chk=mol_0680.chk
# wB97XD/Def2SVP opt pop=full gfinput

C 5 H 4 O 1

1 2
C    1.834943   0.015930   0.000000
C    4.361129   0.031785  -0.000000
C    5.749983   2.327065  -0.000000
C    6.932101   4.264772  -0.000000
C    8.362680   6.579346  -0.000000
O    7.307609   8.634027  -0.000000
H    0.800412  -1.754252   0.000000
H    0.740773   1.752778   0.000000
H    5.404069  -1.735676  -0.000000
H   10.432441   6.358456  -0.000000

