%chk=mol_6448.chk
# wB97XD/Def2SVP opt pop=full gfinput

C 3 H 7 N 1 O 2 S 1

1 2
C    1.704930   0.092124  -0.005972
C    4.564520   0.012888  -0.009827
C    5.918433   1.887799   1.763568
N    7.925209   0.028875   2.480908
S    6.049013  -2.450370   1.707481
O    4.648839  -3.235211   3.905062
O    7.512947  -4.100725   0.108187
H    0.931163  -1.493734  -1.086498
H    1.026461   1.842294  -0.877457
H    0.932353  -0.002135   1.911023
H    5.300757   0.081882  -1.948289
H    4.827079   2.483459   3.420215
H    6.687325   3.569031   0.839454
H    9.514091   0.002608   1.382486

