%chk=mol_1747.chk
# wB97XD/Def2SVP opt pop=full gfinput

C 6 H 9 N 1

1 2
C    2.634883  -0.230150  -0.450643
N    5.219159  -0.335332   0.484923
C    6.633808   1.931584  -0.245759
C    9.349590   1.810055   0.647175
C   10.267317   3.405702   2.395228
C   11.025928  -0.000208  -0.452438
C   12.426215  -1.532757  -1.371204
H    1.635218  -1.957397   0.092464
H    2.575753  -0.085227  -2.513846
H    1.607741   1.366839   0.370556
H    6.103834  -1.873985  -0.266395
H    5.702513   3.604709   0.550704
H    6.623585   2.157670  -2.307998
H    9.075258   4.821731   3.277163
H   12.223694   3.320551   3.008217
H   13.671167  -2.895608  -2.172920

