%chk=mol_4164.chk
# wB97XD/Def2SVP opt pop=full gfinput

C 4 H 6 N 2 O 1

1 2
C    1.804518   0.159795  -0.009864
C    4.592564  -0.026229  -0.003213
N    6.014998   2.071178  -0.000983
O    8.499535   1.241134   0.004573
C    8.544662  -1.322015   0.005499
C    6.120256  -2.219710   0.000813
N    5.404447  -4.656550   0.000057
H    1.167246   2.129570   0.006746
H    1.013441  -0.778076   1.656421
H    1.024137  -0.746858  -1.698372
H   10.398105  -2.171768   0.009486
H    6.658941  -6.109334   0.009902
H    3.565327  -5.203361   0.003269

