%chk=mol_4327.chk
# wB97XD/Def2SVP opt pop=full gfinput

C 6 H 11 N 1

1 2
C   -3.265995   1.072665   0.543863
N   -2.994120  -1.557078  -0.607093
C   -0.395161  -1.429578   0.408427
C    1.953089  -2.169784  -1.012912
C    3.792680  -0.077044  -0.117201
C    2.090566   2.047934   0.968617
C   -0.452230   1.439367  -0.196097
H   -4.622516   2.281070  -0.440023
H   -3.681810   1.080470   2.574223
H   -3.077646  -1.557626  -2.534444
H   -0.297934  -1.954147   2.421835
H    2.636584  -4.052612  -0.512305
H    1.704968  -2.083895  -3.067063
H    5.084233  -0.772218   1.343671
H    4.934718   0.598590  -1.705383
H    2.032835   1.960024   3.036847
H    2.781167   3.918517   0.421655
H   -0.352793   1.954449  -2.218501

