%chk=mol_7095.chk
# wB97XD/Def2SVP opt pop=full gfinput

C 6 H 13 N 1

1 2
C    1.644610   1.779990  -1.917430
C    4.459508   1.563748  -2.023859
C    6.000278   2.307488  -0.145906
C    8.854614   2.175944  -0.059942
C    9.656765   0.481332   2.156423
C   10.109960   1.215982  -2.498105
N    9.760964   4.747483   0.446505
H    0.788072  -0.091444  -2.117533
H    0.972264   2.972464  -3.467345
H    0.986135   2.603268  -0.137818
H    5.221483   0.751941  -3.748045
H    5.137958   3.109639   1.546420
H    8.884736   1.153753   3.959316
H   11.718910   0.413264   2.351405
H    8.993320  -1.463120   1.884435
H    9.623298   2.396910  -4.130053
H    9.535048  -0.727941  -2.925976
H   12.176053   1.217135  -2.331034
H    9.327008   5.864954  -1.061724
H   11.681947   4.741644   0.563951

