%chk=mol_6186.chk
# wB97XD/Def2SVP opt pop=full gfinput

C 5 H 9 N 1 O 1

1 2
O    8.524082   1.144494   3.648286
C    6.454813   2.129721   3.306643
C    5.654552   3.454023   0.912416
C    7.809501   3.868080  -0.953065
C    9.746036   5.710809   0.003042
C   10.737178   7.768116  -1.697069
N    9.028998   8.348980   0.393158
H    4.981847   2.023935   4.781498
H    4.791268   5.256160   1.451177
H    4.187274   2.285567   0.036528
H    7.007199   4.540974  -2.742616
H    8.754742   2.071234  -1.371979
H   11.024568   4.885074   1.377799
H    9.944571   7.984603  -3.572074
H   12.683483   8.361527  -1.487536
H   10.009501   9.099484   1.882129

