%chk=mol_4047.chk
# wB97XD/Def2SVP opt pop=full gfinput

C 5 H 9 N 1 O 1

1 2
C    1.879087   0.022771   0.143374
C    4.673085   0.077517  -0.098719
C    6.228538  -1.876479  -0.371596
O    8.772260  -1.334808  -0.466044
C    8.846167   1.392407  -0.573097
C    6.198188   2.424481   0.082676
N    5.309525   4.411792  -1.606116
H    1.156947  -1.916938   0.122360
H    0.988100   1.042278  -1.420224
H    1.290078   0.898262   1.922229
H    5.777403  -3.860540  -0.470258
H    9.441337   1.923533  -2.487881
H   10.279845   2.087354   0.749087
H    6.171732   3.125002   2.031475
H    5.340612   3.754225  -3.417286
H    6.543763   5.887442  -1.560101

