%chk=mol_7056.chk
# wB97XD/Def2SVP opt pop=full gfinput

C 6 H 11 N 1

1 2
C    1.772941   0.034601  -0.550307
C    4.512949  -0.425529   0.045316
C    5.109347  -3.026056   1.018940
C    6.264140   1.394505  -0.294211
C    8.979072   1.226243   0.195606
C   10.671303   0.052308  -1.770692
N   10.625741   2.778294  -1.383147
H    1.433603   1.950273  -1.253247
H    0.618073  -0.226597   1.145760
H    1.123348  -1.291212  -1.999538
H    4.041954  -3.400808   2.752046
H    7.114044  -3.282417   1.457772
H    4.591259  -4.450645  -0.389888
H    5.628946   3.219810  -1.007564
H    9.515659   1.069094   2.168309
H    9.841939  -0.619074  -3.516440
H   12.345316  -0.942293  -1.148897
H   12.165641   3.361029  -0.378550

