%chk=mol_6329.chk
# wB97XD/Def2SVP opt pop=full gfinput

C 4 H 6 N 2 O 1

1 2
O    2.166420   0.002910  -0.157357
N    4.761146   0.019710  -0.526837
C    6.036711  -1.990997   0.469862
N    8.340042  -1.618777   1.269783
C    8.698334   1.176090   0.861375
C    6.189250   2.148373  -0.143846
C    5.591152   4.583984  -0.460413
H    1.564750   1.083531  -1.517885
H    5.031018  -3.810879   0.529426
H    9.178853   2.060520   2.669843
H   10.223475   1.468374  -0.506239
H    6.940321   6.063262  -0.031691
H    3.748914   5.154871  -1.154075

