%chk=mol_6858.chk
# wB97XD/Def2SVP opt pop=full gfinput

C 6 H 13 N 1

1 2
C    1.828197   0.021278  -0.051949
C    4.712259   0.000321   0.010847
N    5.652454   0.172740  -2.591174
C    5.788930   2.134030   1.653321
C    8.466351   1.270482   2.263382
C    8.273221  -1.593115   2.532365
C    5.771696  -2.376992   1.298072
H    1.036817  -0.127651   1.856467
H    1.089163  -1.567093  -1.157060
H    1.105660   1.773565  -0.887094
H    7.577424   0.135645  -2.621050
H    5.135104   1.861267  -3.358894
H    4.706401   2.319185   3.411787
H    5.769126   3.978384   0.713882
H    9.754691   1.750283   0.712786
H    9.201133   2.165626   3.977269
H    9.888067  -2.530287   1.642040
H    8.266569  -2.137223   4.531204
H    6.046405  -3.949584  -0.025020
H    4.479275  -3.062093   2.765047

