%chk=mol_1374.chk
# wB97XD/Def2SVP opt pop=full gfinput

C 6 H 15 N 1

1 2
C    1.366348   2.054718  -2.240969
C    3.861844   1.901726  -0.822806
C    5.357903   4.362754  -1.055582
N    7.726013   4.149291   0.355306
C    9.229347   6.459613   0.138876
C   11.678866   6.169389   1.643646
C   13.301159   8.535892   1.470717
H    0.324239   0.278262  -2.050504
H    1.679060   2.402919  -4.255909
H    0.181622   3.577100  -1.494112
H    4.969054   0.319647  -1.576769
H    3.480365   1.486761   1.172046
H    4.227393   5.927466  -0.303509
H    5.743955   4.750393  -3.054194
H    8.742629   2.651758  -0.307005
H    8.158685   8.072589   0.876644
H    9.677628   6.839939  -1.848171
H   12.766801   4.553957   0.933789
H   11.247972   5.789970   3.635550
H   13.827976   8.930845  -0.490271
H   15.038951   8.294461   2.566002
H   12.294634  10.181372   2.217745

