%chk=mol_3009.chk
# wB97XD/Def2SVP opt pop=full gfinput

C 7 H 12

1 2
C    1.836115  -0.185514   0.339773
C    4.712769  -0.053120   0.014419
C    5.429844  -1.457281  -2.424859
C    5.720938   2.707637   0.000000
C    4.818669   4.235141   2.290442
C    8.448229   2.758981  -0.072981
C   10.696115   2.801292  -0.133131
H    1.255931   0.491272   2.205310
H    1.164241  -2.136751   0.174460
H    0.867838   0.946526  -1.096627
H    5.571669  -1.080016   1.601996
H    4.663712  -0.497452  -4.091049
H    4.686445  -3.389375  -2.404544
H    7.480783  -1.598047  -2.648376
H    4.993223   3.657527  -1.695708
H    5.307239   3.290524   4.069129
H    2.770093   4.523116   2.250796
H    5.690570   6.116080   2.323645
H   12.708843   2.838425  -0.187045

