%chk=mol_4335.chk
# wB97XD/Def2SVP opt pop=full gfinput

C 5 H 9 N 1 O 1

1 2
C    3.560187  -0.958790  -2.422856
C    5.043962  -0.253393  -0.064837
C    5.783375   2.485784  -0.085794
C    8.188864   3.278939  -0.044446
C    8.764304   6.008006  -0.054670
N   11.066916   6.827543  -0.005102
O   11.035811   9.472933  -0.028346
H    3.030025  -2.957459  -2.361383
H    4.681834  -0.646211  -4.133889
H    1.823529   0.156696  -2.577568
H    6.712950  -1.472267   0.079539
H    3.883765  -0.615862   1.611917
H    4.241075   3.845479  -0.116237
H    9.787156   1.999028  -0.001720
H    7.134604   7.311388  -0.106165
H   12.831732   9.886442   0.015798

