%chk=mol_1958.chk
# wB97XD/Def2SVP opt pop=full gfinput

C 5 H 8 N 2

1 2
N    1.951804  -0.111191   0.035281
C    4.353589  -0.115292   0.184078
N    6.089303  -2.023273   0.451040
C    8.524536  -0.742058   0.127538
C    8.191471   1.242419  -2.082478
C    6.166630   2.198016  -0.105579
C    8.372072   1.704117   1.842067
H    1.299092  -1.915483   0.286690
H    5.787305  -3.549529  -0.667810
H   10.190688  -1.944283   0.205035
H    7.454762   0.507996  -3.868931
H    9.793411   2.495610  -2.466395
H    5.374306   4.082394  -0.297084
H    9.988677   2.995216   1.777457
H    7.808707   1.412362   3.809404

