%chk=mol_1968.chk
# wB97XD/Def2SVP opt pop=full gfinput

C 6 H 9 N 1

1 2
N    1.889726   0.000000   0.000000
C    4.064820   0.000000   0.000000
C    6.793584   0.000000   0.000000
C    7.894917   2.127076   1.608554
C   10.571771   1.227037   2.127302
C   10.261742  -1.586161   2.634032
C    7.916214  -2.409155   1.152015
H    7.497110   0.196361  -1.941712
H    6.857098   2.347985   3.391548
H    7.862943   3.950208   0.629449
H   11.758462   1.520946   0.455802
H   11.442670   2.218236   3.716203
H   11.943863  -2.654253   2.077848
H    9.955587  -1.916390   4.656342
H    8.416198  -3.762747  -0.334557
H    6.592007  -3.375391   2.422402

