%chk=mol_3875.chk
# wB97XD/Def2SVP opt pop=full gfinput

C 4 H 6 N 2 O 1

1 2
C   -0.874339   2.612471  -0.396824
O   -2.934575   0.906596  -0.211952
C   -2.316540  -1.599974  -0.957638
C   -0.441327  -2.614984   0.906067
N    1.909871  -1.932850   1.069736
N    2.888125  -0.330022  -0.776848
C    1.696728   1.741307  -1.344181
H   -0.607887   3.541498   1.429880
H   -1.483964   4.091030  -1.708804
H   -1.607836  -1.649806  -2.895363
H   -4.032222  -2.746925  -0.855800
H   -1.170383  -3.931349   2.346454
H    2.660640   3.050472  -2.644577

