%chk=mol_0131.chk
# wB97XD/Def2SVP opt pop=full gfinput

C 5 H 8

1 2
C    1.876857  -0.059923   0.020031
C    4.762110   0.000000   0.000000
C    5.782732  -1.444034  -2.283564
C    5.672996   2.572238   0.000000
C    6.423746   4.692322   0.000000
H    1.124859   0.922697   1.682102
H    1.179794  -2.009081   0.069693
H    1.084155   0.859315  -1.659765
H    5.432811  -0.956504   1.712621
H    5.163053  -0.585645  -4.063308
H    5.134102  -3.408650  -2.260642
H    7.853022  -1.460116  -2.284320
H    7.095827   6.590722  -0.000302

