%chk=mol_1126.chk
# wB97XD/Def2SVP opt pop=full gfinput

C 6 H 8

1 2
C    1.969832  -0.477798   0.318608
C    4.759786   0.007257  -0.194113
C    5.410947   2.784266  -0.121717
C    5.973538   4.081733  -2.227345
C    5.502618   4.060681   2.254670
C    5.577527   5.126468   4.254397
H    1.568813  -2.504454   0.208267
H    0.776413   0.485849  -1.070870
H    1.421301   0.173911   2.204441
H    5.245540  -0.803379  -2.039714
H    5.908002  -1.008452   1.201582
H    5.952127   3.188988  -4.073210
H    6.466076   6.073485  -2.163075
H    5.644706   6.074846   6.029001

