%chk=mol_6583.chk
# wB97XD/Def2SVP opt pop=full gfinput

C 7 H 8

1 2
C   -0.011206   0.050966  -2.545896
C    0.061662  -2.103568  -0.603673
C    2.382397  -1.236013   0.849848
C    2.317390   1.312528   0.904612
C   -0.046487   2.122106  -0.512021
C   -2.340785   1.193532   0.946091
C   -2.275174  -1.357107   0.890515
H    1.659879   0.120829  -3.776183
H   -1.705251   0.033826  -3.746363
H    0.103387  -3.992443  -1.418126
H    3.747988  -2.448650   1.754195
H    3.620224   2.553209   1.861720
H   -0.103028   4.043863  -1.245500
H   -3.687649   2.365144   1.926595
H   -3.559432  -2.637774   1.819202

