%chk=mol_3093.chk
# wB97XD/Def2SVP opt pop=full gfinput

C 6 H 10 O 1

1 2
C    0.691715  -0.625159   2.710151
C    3.086433  -0.842440   1.145665
C    3.869252   1.691229   0.025927
O    6.118140   1.320938  -1.409849
C    6.977284   3.617767  -2.525241
C    9.286681   3.117765  -3.971845
C   11.179053   2.705596  -5.156647
H    0.181149  -2.467510   3.499244
H   -0.890344   0.038834   1.554545
H    0.949228   0.696723   4.280305
H    2.808775  -2.219597  -0.377794
H    4.625313  -1.589732   2.315292
H    4.229604   3.060865   1.537802
H    2.372816   2.422894  -1.205381
H    7.361560   5.007245  -1.038990
H    5.509213   4.370955  -3.776126
H   12.855769   2.319922  -6.201628

