%chk=mol_0569.chk
# wB97XD/Def2SVP opt pop=full gfinput

C 4 H 8 N 2

1 2
N    1.801003  -0.096981   0.409371
C    4.552388  -0.027004  -0.044220
C    5.626451   2.707637   0.000000
N    4.666641   4.084624   2.212265
C    8.355216   2.707637   0.000000
C   10.604293   2.707637   0.000000
H    1.199296  -1.925782   0.287673
H    0.906785   0.850585  -1.015142
H    4.967126  -0.916555  -1.868372
H    5.463180  -1.175825   1.419524
H    4.931656   3.697589  -1.682971
H    5.453750   3.297402   3.784781
H    2.796927   3.594505   2.354674
H   12.617739   2.730276   0.009524

