%chk=mol_5185.chk
# wB97XD/Def2SVP opt pop=full gfinput

C 4 H 10 N 2 O 1

1 2
C    1.577147   0.857255  -1.602242
N    4.260426   0.548304  -2.005491
C    6.033348   2.158218  -0.997133
N    5.706066   4.560571  -0.732533
C    8.571420   1.000667  -0.157339
C    8.282103  -0.249274   2.410327
O    9.315159  -0.874263  -1.943583
H    0.560172  -0.765245  -2.382831
H    0.874660   2.558292  -2.543364
H    1.151202   0.975930   0.418329
H    4.832994  -1.293121  -1.963029
H    3.980481   5.043358  -1.451820
H   10.023372   2.473765  -0.083205
H    6.995426  -1.869034   2.310493
H    7.548738   1.073572   3.819741
H   10.103988  -0.979842   3.065098
H    9.562675   0.031332  -3.528383

