%chk=mol_4174.chk
# wB97XD/Def2SVP opt pop=full gfinput

C 4 H 5 N 1 O 2

1 2
C    1.973403   0.000132   0.172003
C    4.771596   0.020957  -0.130221
N    6.112432  -1.984553  -0.488154
O    8.689433  -1.203548  -0.696610
C    8.839100   1.378631  -0.453345
O   10.777713   2.627683  -0.550893
C    6.249551   2.384419  -0.050059
H    1.251906  -1.933965   0.093031
H    1.113918   1.109080  -1.344219
H    1.473608   0.839379   1.991998
H    5.688491   3.635720  -1.589430
H    6.078323   3.276143   1.800966

