%chk=mol_3692.chk
# wB97XD/Def2SVP opt pop=full gfinput

C 6 H 10 O 1

1 2
O    2.106704   0.820292  -0.083847
C    4.694987   0.106826  -0.205149
C    5.039106  -1.305461  -2.635507
C    5.971384  -3.654012  -2.822514
C    6.261967   2.464959  -0.021392
C    7.144128   3.424864   2.516246
C    9.021609   2.335380   0.682210
H    1.900309   1.734976   1.493507
H    5.066318  -1.142188   1.406901
H    4.459357  -0.324674  -4.344575
H    6.554780  -4.717229  -1.168985
H    6.150189  -4.563934  -4.651410
H    5.718992   3.855495  -1.428274
H    6.718184   2.332848   4.196609
H    7.167637   5.451255   2.819509
H   10.305187   3.623323  -0.263144
H    9.838897   0.504632   1.104356

