%chk=mol_2958.chk
# wB97XD/Def2SVP opt pop=full gfinput

C 6 H 14 O 1

1 2
C    1.848247  -0.060698   0.003798
C    4.721689  -0.022299   0.047413
C    5.743936   2.682391  -0.080918
C    8.641075   2.761136  -0.030179
O    9.617799   1.458944  -2.176983
C    9.610656   5.491072  -0.024188
C   12.483285   5.634408   0.081750
H    1.156645  -2.006795   0.111248
H    1.123423   0.782347  -1.740646
H    1.067223   0.988213   1.606305
H    5.431092  -1.134478  -1.548952
H    5.387685  -0.940517   1.780349
H    4.990540   3.777808   1.509097
H    5.056283   3.566442  -1.826496
H    9.332621   1.779120   1.656969
H    9.012255   2.321415  -3.682434
H    8.824058   6.511259   1.598368
H    8.978750   6.467814  -1.740135
H   13.210716   4.675749   1.763738
H   13.094687   7.609039   0.153521
H   13.341977   4.765908  -1.586841

