%chk=mol_1402.chk
# wB97XD/Def2SVP opt pop=full gfinput

C 6 H 15 N 1

1 2
C    2.126622   1.398227  -3.985224
C    4.103805   1.819901  -1.942128
C    4.266038   4.607908  -1.192436
N    6.117006   4.912154   0.841098
C    6.518667   7.559264   1.573518
C    4.192792   8.710958   2.844302
C    8.763813   7.659551   3.395668
H    2.037862  -0.604278  -4.493504
H    2.581574   2.475768  -5.692516
H    0.251504   1.977315  -3.331984
H    5.942338   1.159158  -2.633352
H    3.618807   0.667206  -0.290035
H    2.394396   5.237659  -0.572190
H    4.815929   5.735546  -2.842375
H    7.794270   4.145908   0.278905
H    7.010506   8.682762  -0.096811
H    3.549473   7.554199   4.437833
H    2.618272   8.911174   1.517091
H    4.616884  10.604047   3.570581
H    8.404708   6.549489   5.107665
H    9.151358   9.610297   3.974963
H   10.483501   6.924146   2.504416

