%chk=mol_5206.chk
# wB97XD/Def2SVP opt pop=full gfinput

C 4 H 8 N 2 O 1

1 2
C    2.343336  -0.700030  -0.379892
N    5.028183  -0.315546  -0.153351
C    6.031307   2.078850  -0.203542
O    4.782859   4.002515  -0.500777
C    8.814930   2.101451   0.139670
C   10.052455   4.300015   0.289752
N   12.608083   4.632248   0.592127
H    1.970323  -2.726875  -0.493880
H    1.648540   0.243567  -2.081666
H    1.405125   0.098625   1.278305
H    6.140325  -1.819750   0.227069
H    9.803200   0.318778   0.263787
H    9.025313   6.085674   0.189351
H   13.681768   3.110697   0.121623
H   13.267880   6.275157  -0.162233

