%chk=mol_2370.chk
# wB97XD/Def2SVP opt pop=full gfinput

C 6 H 10 O 1

1 2
C    1.776607  -0.340453   0.671023
C    4.221913   0.825565  -0.258930
C    5.782921   2.310549   1.674505
C    7.634588   0.084943   1.524423
O    6.183203  -1.070568  -0.498151
C   10.298838   0.766246   0.954406
C   11.118468   1.128544  -1.411380
H    0.986513  -1.610047  -0.758290
H    0.374204   1.129206   1.059645
H    2.061275  -1.429937   2.407209
H    3.968822   1.833866  -2.051562
H    4.905653   2.584579   3.525964
H    6.478378   4.128428   0.974683
H    7.553689  -1.133250   3.201612
H   11.588745   0.957260   2.537449
H    9.872761   0.928385  -3.030799
H   13.076074   1.613845  -1.781879

