%chk=mol_0247.chk
# wB97XD/Def2SVP opt pop=full gfinput

C 5 H 9 N 1

1 2
C    1.760167  -0.016327   1.817463
C    0.549608  -1.930488  -0.054481
C    1.432564  -0.051306  -2.135617
C    0.546792   1.887137  -0.089516
N   -2.202967   1.409490   0.125062
C   -2.247678  -1.364156   0.177823
H    3.830456  -0.014986   1.893298
H    1.033359  -0.002419   3.754205
H    1.230098  -3.870461  -0.092559
H    0.396824  -0.072754  -3.926568
H    3.462337  -0.055312  -2.551206
H    1.194590   3.837807  -0.166863
H   -2.985692   2.097615   1.745880
H   -3.336557  -2.119592  -1.409585
H   -3.038831  -2.080891   1.950348

