%chk=mol_6521.chk
# wB97XD/Def2SVP opt pop=full gfinput

C 4 H 6 N 2 S 1

1 2
C    1.800078  -0.227863   0.013398
C    4.653980   0.117560   0.010412
C    5.405410   2.835836  -0.003912
N    5.710450   4.030465  -2.213984
S    6.531687   6.990475  -1.447776
N    6.507480   6.771928   1.710183
C    5.855430   4.381840   2.173525
H    1.321448  -2.239533   0.031691
H    0.943030   0.622797  -1.666833
H    0.943030   0.653127   1.677907
H    5.460382  -0.845955  -1.639413
H    5.454997  -0.810333   1.682310
H    5.714305   3.794003   4.124989

