%chk=mol_3630.chk
# wB97XD/Def2SVP opt pop=full gfinput

C 5 H 8 O 2

1 2
O    3.998169  -0.682059  -2.586978
C    4.407938   0.111872  -0.050701
C    6.013222   2.477204  -0.087551
C    4.745688   4.930976  -1.113181
C    5.665267   6.436502   1.219157
C    6.201930   3.861089   2.471856
O    6.566628   3.180749   4.626238
H    3.050453  -2.256862  -2.510993
H    5.372643  -1.410926   0.964025
H    2.568402   0.442442   0.837016
H    7.894029   2.143271  -0.898168
H    2.680747   4.831935  -1.257745
H    5.491412   5.598994  -2.922745
H    7.374146   7.557185   0.913739
H    4.221856   7.568750   2.163113

