%chk=mol_3781.chk
# wB97XD/Def2SVP opt pop=full gfinput

C 5 H 4 O 2

1 2
O    5.825799  -2.300477   0.044238
C    4.454897  -0.454139  -0.119525
C    5.530945   2.181727  -0.166031
O    4.026477   3.934939  -0.339622
C    8.374492   2.363178   0.000000
C    9.285378   4.935417   0.000000
C   10.036128   7.055501   0.000000
H    2.379638  -0.539214  -0.244190
H    9.173883   1.336263  -1.610160
H    8.975235   1.412344   1.738321
H   10.692826   8.959929  -0.001455

