%chk=mol_6471.chk
# wB97XD/Def2SVP opt pop=full gfinput

C 4 H 5 N 1 O 1 S 1

1 2
C    1.734107   0.178239  -0.008107
C    4.538121  -0.023603  -0.011679
N    6.088736   1.920302  -0.017801
C    8.552390   1.058152  -0.020522
C    8.860869  -1.534023  -0.016535
O   10.958484  -2.918795  -0.017726
S    5.953091  -2.945648  -0.009241
H    1.152015   2.164039   0.012132
H    0.930992  -0.736445   1.665076
H    0.930747  -0.702714  -1.699147
H   10.071787   2.428204  -0.025587
H   12.384188  -1.760318  -0.022431

