%chk=mol_1358.chk
# wB97XD/Def2SVP opt pop=full gfinput

C 6 H 13 N 1

1 2
C    2.158596   0.183077   0.299049
C    5.029922   0.010091  -0.061737
C    5.575410  -1.359601  -2.557801
N    6.127324   2.566210  -0.127708
C    6.103400   3.759931   2.423933
C    8.762074   4.779118   1.826420
C    8.939633   2.480795   0.054367
H    1.672653   1.050215   2.113942
H    1.307256  -1.703890   0.271497
H    1.272220   1.298809  -1.202225
H    5.815122  -1.124500   1.490068
H    4.830254  -0.307345  -4.177598
H    4.699314  -3.234966  -2.564793
H    7.606148  -1.628150  -2.847742
H    6.062166   2.456663   4.037268
H    4.649104   5.204589   2.690139
H    8.771504   6.607238   0.851794
H   10.098620   4.830197   3.398635
H    9.932155   2.819641  -1.726775
H    9.739838   0.796444   0.962362

