%chk=mol_6900.chk
# wB97XD/Def2SVP opt pop=full gfinput

C 6 H 13 N 1

1 2
C    5.381581  -2.254954  -0.879705
C    4.358351   0.279509  -0.001739
C    6.373876   2.269183   0.000057
C    6.479417   4.242568  -2.046498
C    5.661638   4.967183   0.577047
N    7.367683   6.521275   2.108046
C    7.180922   5.938653   4.794046
H    3.874770  -3.672097  -0.907957
H    6.873104  -2.929075   0.388490
H    6.184866  -2.116436  -2.782886
H    3.609471   0.076761   1.918639
H    2.776650   0.835410  -1.216190
H    8.145910   1.592680   0.778076
H    5.055528   4.219267  -3.518273
H    8.329346   4.843727  -2.690214
H    3.660985   5.379729   0.823562
H    6.993990   8.393445   1.835756
H    7.746686   3.987133   5.171406
H    5.258787   6.231126   5.498593
H    8.452877   7.173041   5.860513

