%chk=mol_0733.chk
# wB97XD/Def2SVP opt pop=full gfinput

C 5 H 4 O 1

1 2
C    1.749924  -0.233608   0.093617
C    4.252734   0.056427  -0.139273
C    5.606780   2.504473   0.132262
O    7.911036   2.559180  -0.119015
C    4.290755   4.841290   0.686651
C    3.217580   6.789124   1.146081
H    0.901173  -2.088676  -0.132224
H    0.482976   1.325133   0.507429
H    5.466014  -1.544039  -0.554257
H    2.287608   8.527559   1.552958

