%chk=mol_1759.chk
# wB97XD/Def2SVP opt pop=full gfinput

C 6 H 13 N 1

1 2
C    1.515447   1.589335  -0.297783
N    4.185970   0.989612  -0.002759
C    5.775759   3.098678  -0.820519
C    8.564050   2.396626  -0.516935
C   10.276955   4.587556  -1.313775
C   13.020100   3.921635  -1.012156
C   14.688841   3.884748  -2.911728
H    0.374506  -0.011112   0.345933
H    1.034568   1.958871  -2.276459
H    0.986135   3.230203   0.845804
H    4.605716  -0.577727  -1.043223
H    5.362476   4.776037   0.322425
H    5.391162   3.559979  -2.803239
H    8.997231   0.721479  -1.663261
H    8.948779   1.893676   1.459757
H    9.874915   6.251346  -0.145811
H    9.865108   5.114960  -3.275973
H   13.660868   3.463433   0.887302
H   14.146962   4.337111  -4.838039
H   16.652361   3.396102  -2.571671

