%chk=mol_0195.chk
# wB97XD/Def2SVP opt pop=full gfinput

C 4 H 8 O 1

1 2
C    1.954468   0.019710  -0.126423
C    4.771237   0.001361  -0.029064
C    6.260946  -1.315608  -2.064110
C    6.275176   1.520946  -1.904390
O    8.554658   2.650738  -0.978236
H    1.212297   1.499876   1.109194
H    1.210974  -1.795882   0.522755
H    1.243988   0.360673  -2.038259
H    5.456263  -0.135928   1.895924
H    5.249243  -2.171409  -3.626233
H    7.952364  -2.333509  -1.519661
H    5.256991   2.544611  -3.362106
H    9.332148   1.664093   0.362147

