%chk=mol_0086.chk
# wB97XD/Def2SVP opt pop=full gfinput

C 3 H 3 N 1 O 1

1 2
O   -0.712578  -2.023916  -0.004120
C   -2.190948   0.071677  -0.003798
C   -0.698122   2.188794   0.000983
C    1.775511   1.220839   0.003496
N    1.806427  -1.301889   0.000510
H   -4.203753  -0.267888  -0.007200
H   -1.306084   4.134645   0.002400
H    3.550984   2.229197   0.007351

