%chk=mol_1655.chk
# wB97XD/Def2SVP opt pop=full gfinput

C 5 H 10 N 2

1 2
C    2.222242   0.004101  -0.118278
N    4.742532  -0.026456   0.980125
C    6.256316  -2.191459   0.167713
C    8.886041  -1.322015   0.910886
C    8.446112   1.471983   0.916139
C   10.589326   3.297723   0.992541
N    6.093044   2.155289   0.936284
H    1.244026  -1.789438   0.219359
H    2.288024   0.350469  -2.159220
H    1.078769   1.496228   0.751128
H    6.158447  -2.459308  -1.885304
H    5.718217  -3.949320   1.112784
H   10.329375  -1.862684  -0.461887
H    9.419869  -1.928050   2.814502
H    9.910631   5.219650   0.659382
H   11.970659   2.803938  -0.460923
H   11.493731   3.206053   2.847761

