%chk=mol_0059.chk
# wB97XD/Def2SVP opt pop=full gfinput

C 4 H 10 O 1

1 2
C    1.751889  -0.093031   0.058015
C    4.618812   0.064024   0.124193
C    5.634067   2.771605   0.040648
C    4.911776   4.344102   2.339481
O    8.325661   2.672961  -0.114404
H    1.151448  -2.070101  -0.046620
H    0.992635   0.894067  -1.593266
H    0.908656   0.727223   1.757748
H    5.391030  -0.989668  -1.486723
H    5.329651  -0.907617   1.812720
H    4.965388   3.718263  -1.674052
H    5.538958   3.431724   4.089348
H    2.871231   4.653054   2.448575
H    5.843846   6.191707   2.268219
H    8.947986   1.843466   1.402989

