%chk=mol_3042.chk
# wB97XD/Def2SVP opt pop=full gfinput

C 7 H 14

1 2
C    2.085162  -0.255812  -0.391816
C    4.954503  -0.550043  -0.161553
C    5.925274  -2.331752  -2.221732
C    6.225363   2.071404  -0.274880
C    9.071082   2.049502   0.013606
C   10.109487   1.114938   2.486426
C   10.599039   2.890298  -1.830899
H    1.345655   0.940365   1.126409
H    1.143511  -2.093930  -0.260348
H    1.560063   0.604297  -2.199868
H    5.344958  -1.418221   1.680401
H    5.665985  -1.513973  -4.105090
H    4.913723  -4.136875  -2.164700
H    7.935943  -2.747038  -1.970096
H    5.441448   3.272987   1.224599
H    5.703798   2.992854  -2.060425
H    9.243312   2.136298   4.063062
H   12.157421   1.385623   2.617705
H    9.731447  -0.904725   2.718843
H    9.854033   3.591897  -3.609112
H   12.640435   2.900219  -1.615678

