%chk=mol_4390.chk
# wB97XD/Def2SVP opt pop=full gfinput

C 5 H 13 N 1 O 1

1 2
C   -1.655778   0.019407   0.747727
C    1.091922   0.100571  -0.105466
C    2.859477   1.567244   1.677642
C    2.246771   4.422564   1.677094
N    4.107055   5.841578   3.172189
O    2.668180   0.691678   4.245440
C    3.744284  -1.739228   4.629243
H   -2.764310  -1.142472  -0.557375
H   -2.497160   1.907338   0.773125
H   -1.839403  -0.804967   2.635412
H    1.193324   0.916083  -2.007494
H    1.761263  -1.852612  -0.272196
H    4.815211   1.325095   1.025271
H    0.385466   4.751168   2.520951
H    2.233429   5.166322  -0.252808
H    4.255852   4.948078   4.881692
H    3.405986   7.594431   3.547677
H    3.822387  -2.092702   6.663798
H    5.666212  -1.832505   3.873050
H    2.563413  -3.201385   3.771837

