%chk=mol_4933.chk
# wB97XD/Def2SVP opt pop=full gfinput

C 4 H 10 N 2 O 1

1 2
C    1.696880   3.007102   1.075235
C    4.321690   2.465223   0.067047
O    5.987427   4.404196   0.927421
N    8.407638   3.928004  -0.041404
C    9.930813   5.652870   0.786523
C   12.687357   5.644971   0.064118
N   13.209205   7.882993  -1.477728
H    0.356157   1.561726   0.456444
H    1.034644   4.855897   0.425283
H    1.708407   3.065457   3.144259
H    4.296179   2.440392  -2.002297
H    4.984398   0.629921   0.762429
H    9.283110   7.193753   2.036388
H   13.148261   3.925264  -0.986305
H   13.812972   5.710356   1.794711
H   12.172161   7.764582  -3.102250
H   15.053143   7.840077  -2.032041

