%chk=mol_4319.chk
# wB97XD/Def2SVP opt pop=full gfinput

C 5 H 9 N 1 O 1

1 2
C    1.941335   0.108319   0.437793
C    4.618774   0.493389  -0.565066
C    5.162221  -0.575932  -3.155011
C    3.527892  -1.713056  -4.721519
C    5.129586   3.305547  -0.670550
N    6.656220   4.364625   0.923547
O    6.708641   6.967722   0.452741
H    1.751360   0.934451   2.328048
H    1.475328  -1.903219   0.579862
H    0.528481   1.026046  -0.768004
H    5.945494  -0.370897   0.772955
H    7.120431  -0.405668  -3.778148
H    1.549746  -1.983627  -4.255153
H    4.155092  -2.423706  -6.543101
H    4.091711   4.420504  -2.100827
H    7.828285   7.586438   1.781161

