%chk=mol_2807.chk
# wB97XD/Def2SVP opt pop=full gfinput

C 6 H 12 O 1

1 2
C    1.658821  -0.888285   0.832084
C    4.430009  -0.682229   0.029026
C    5.190416  -3.039190  -1.461495
C    4.836471   1.768292  -1.484626
C    7.594053   2.246109  -2.189834
C    7.968219   4.751962  -3.505763
O    6.272058   6.251176  -4.000437
H    1.103524   0.739261   1.983211
H    1.343746  -2.593574   1.961989
H    0.404382  -0.968881  -0.812261
H    5.586219  -0.601745   1.748242
H    4.195192  -3.134508  -3.273648
H    4.743666  -4.757404  -0.396635
H    7.223138  -3.067725  -1.838307
H    4.145643   3.371120  -0.362979
H    3.681489   1.731235  -3.208736
H    8.295955   0.784406  -3.474507
H    8.782464   2.251004  -0.494787
H    9.939808   5.178473  -4.032865

