%chk=mol_0764.chk
# wB97XD/Def2SVP opt pop=full gfinput

C 4 H 8 O 2

1 2
C    1.861683  -0.388528   0.009108
C    4.668228   0.192601  -0.102442
C    5.209824   3.005156  -0.110322
O    3.539684   4.629772  -0.084716
C    7.986172   3.766923  -0.197420
O    8.301435   6.422253   0.016592
H    1.548687  -2.432796   0.017461
H    0.871806   0.410335  -1.623199
H    1.005996   0.404118   1.718441
H    5.478562  -0.624592  -1.821998
H    5.612846  -0.642923   1.537991
H    8.792839   3.153424  -1.997611
H    8.991449   2.866904   1.366763
H    6.620467   7.161495  -0.219019

