%chk=mol_3439.chk
# wB97XD/Def2SVP opt pop=full gfinput

C 5 H 10 O 2

1 2
C    2.580629  -0.402531   0.343855
O    5.263549  -0.307156   0.357536
C    6.164702   2.215572   0.031048
C    9.020456   2.281334  -0.076874
C   10.505007   0.221514   0.067312
C   10.133543   4.881578  -0.323351
O    9.391448   5.937104  -2.673981
H    1.997667  -2.363424   0.633644
H    1.843277   0.240770  -1.478125
H    1.803819   0.750656   1.874684
H    5.511840   3.370667   1.622311
H    5.390406   2.986523  -1.728797
H    9.702100  -1.658783   0.264127
H   12.550635   0.348409   0.000699
H   12.201243   4.865005  -0.247252
H    9.460158   6.111450   1.197142
H    9.927790   4.747294  -3.969899

