%chk=mol_3112.chk
# wB97XD/Def2SVP opt pop=full gfinput

C 5 H 10 O 2

1 2
C    1.815876  -2.043399   1.251055
C    3.954687  -1.496247  -0.603049
C    5.133007  -3.960053  -1.521324
O    3.026888  -0.201766  -2.788631
C    2.521235   2.403448  -2.356224
C    1.795637   3.586568  -4.847979
O    2.446326   5.718425  -5.495116
H    1.065730  -0.293418   2.058233
H    2.464052  -3.232509   2.814237
H    0.238389  -2.989433   0.301298
H    5.427501  -0.363583   0.315546
H    3.747837  -5.111501  -2.542419
H    5.888216  -5.068434   0.052648
H    6.673511  -3.569126  -2.847761
H    4.200332   3.361029  -1.620119
H    0.925002   2.626493  -1.064199
H    0.455216   2.485595  -6.007042

