%chk=mol_1493.chk
# wB97XD/Def2SVP opt pop=full gfinput

C 6 H 13 N 1

1 2
C    1.893940   0.996642   0.218018
C    4.727433   0.584228  -0.023281
N    6.044364   3.007537   0.112590
C    8.760242   2.674057  -0.230036
C    9.949919   5.240948  -0.179543
C   11.070148   6.296983   2.218406
C   12.775494   5.489900   0.093428
H    0.898244  -0.812847   0.092238
H    1.184745   2.218142  -1.294897
H    1.410869   1.865160   2.034649
H    5.110651  -0.342362  -1.835151
H    5.366595  -0.675747   1.492033
H    5.722204   3.828188   1.825060
H    9.155610   1.797035  -2.064469
H    9.544912   1.460683   1.253588
H    9.039618   6.539927  -1.482207
H   11.045374   5.145687   3.912413
H   10.859538   8.304269   2.567968
H   13.711116   6.948957  -0.997416
H   13.891339   3.789562   0.346066

