%chk=mol_5216.chk
# wB97XD/Def2SVP opt pop=full gfinput

C 4 H 9 N 1 O 2

1 2
C    2.501997   5.395943   4.578806
N    3.964022   3.390906   3.474110
C    4.494033   3.307380   0.928404
O    3.907670   4.980884  -0.569015
C    5.910534   0.921997   0.110587
O    6.264499  -0.807952   2.156291
C    7.570526  -3.014094   1.348603
H    2.617441   5.244992   6.634224
H    0.537778   5.209087   3.966630
H    3.240370   7.223856   3.958806
H    4.350244   1.792878   4.467180
H    7.753263   1.505866  -0.630035
H    4.797769   0.008731  -1.377119
H    9.425973  -2.520743   0.581185
H    6.459651  -4.030767  -0.067690
H    7.839699  -4.245175   2.985125

