%chk=mol_0487.chk
# wB97XD/Def2SVP opt pop=full gfinput

C 5 H 11 N 1

1 2
C    2.192366  -0.225652   1.031790
N    4.936834  -0.177804   0.819801
C    5.821490   2.302310  -0.046941
C    8.716381   2.334587  -0.239542
C    9.680273   4.857276  -1.125124
C   11.027100   5.201755  -3.239576
H    1.584649  -2.096236   1.669951
H    1.282670   0.152992  -0.787033
H    1.526937   1.152695   2.423177
H    5.499519  -1.528240  -0.435298
H    5.207292   3.768360   1.284636
H    4.998156   2.741671  -1.899024
H    9.349817   0.829212  -1.517507
H    9.546878   1.935004   1.617983
H    9.261491   6.480116   0.066405
H   11.510700   3.640047  -4.479199
H   11.686312   7.070486  -3.771629

