%chk=mol_0854.chk
# wB97XD/Def2SVP opt pop=full gfinput

C 5 H 8 O 1

1 2
O    2.416525  -0.088061   1.376495
C    4.519866  -0.021165   0.417081
C    6.023445   2.368923   0.051892
C    8.121911   1.477728  -1.705818
C    8.549991  -1.272523  -0.976100
C    5.905375  -2.320206  -0.533640
H    6.774536   2.976432   1.879125
H    4.879235   3.855646  -0.807102
H    7.493936   1.594060  -3.677993
H    9.834967   2.618612  -1.513444
H    9.568969  -2.323947  -2.435460
H    9.656179  -1.373170   0.774221
H    5.035138  -2.948086  -2.299816
H    5.902786  -3.833744   0.869482

