%chk=mol_3415.chk
# wB97XD/Def2SVP opt pop=full gfinput

C 5 H 10 O 2

1 2
C    6.005569  -2.334416   1.274186
O    4.584589  -0.240940   0.366758
C    5.845055   1.981321   0.001663
C    8.298733   2.506930   0.358727
C    9.420322   5.079471  -0.127859
C   11.420900   5.015220  -2.211169
O   10.298327   4.596834  -4.620343
H    4.719950  -3.942025   1.464028
H    6.806170  -1.932566   3.139194
H    7.489532  -2.858381  -0.068975
H    4.509775   3.387655  -0.672062
H    9.598448   1.076048   1.046776
H   10.287272   5.746034   1.630947
H    7.933411   6.428300  -0.641902
H   12.837250   3.544125  -1.875440
H   12.399778   6.835329  -2.295488
H    9.319336   3.042837  -4.506808

