%chk=mol_1370.chk
# wB97XD/Def2SVP opt pop=full gfinput

C 5 H 12 N 2

1 2
C    2.206936   0.447601   0.254660
C    5.032492  -0.155354  -0.020598
C    5.867108  -1.915993   2.129419
N    5.429958  -1.498742  -2.422874
C    6.529495   2.288704  -0.186667
C    6.968497   3.968387   2.084859
N    9.039070   2.543534   0.962362
H    1.538237   1.669516  -1.280119
H    1.831919   1.443429   2.032287
H    1.054656  -1.274394   0.243057
H    5.611825  -1.027463   3.981729
H    7.863831  -2.443000   1.961422
H    4.763187  -3.670793   2.138981
H    4.592261  -0.539290  -3.863356
H    4.569660  -3.218865  -2.350725
H    6.257242   3.252464  -1.979072
H    6.355433   3.347310   3.933975
H    6.999167   5.996876   1.811775
H   10.162721   3.647417  -0.152255

