%chk=mol_5301.chk
# wB97XD/Def2SVP opt pop=full gfinput

C 4 H 8 N 2 O 1

1 2
C    1.885682   0.391022  -0.192639
O    4.458053   0.474888   0.637707
C    5.870226   2.525166   0.113365
N    8.314644   2.474218   0.349448
C    9.083007   5.081417  -0.378796
C    6.659395   6.671093  -0.397428
N    4.735068   4.735200  -0.572209
H    1.266419  -1.580000  -0.148060
H    1.699676   1.085818  -2.131762
H    0.698197   1.482698   1.099367
H   10.463357   5.835210   0.963949
H    9.952659   5.025689  -2.257391
H    6.592669   7.989044  -1.986820
H    6.456722   7.721100   1.374814
H    3.084921   5.113070   0.312107

