%chk=mol_2462.chk
# wB97XD/Def2SVP opt pop=full gfinput

C 5 H 8 O 2

1 2
C    1.904674   0.070317   0.169886
C    4.696366   0.085057  -0.091349
C    6.237551  -1.871112  -0.414738
O    8.778459  -1.332862  -0.572115
C    8.881145   1.400457  -0.542503
C    6.235019   2.420512   0.063740
O    5.422796   4.221762  -1.748904
H    1.148783  -1.853009   0.095696
H    1.030128   1.153413  -1.358411
H    1.342480   0.908675   1.974461
H    5.778537  -3.851583  -0.541066
H    9.570556   2.044476  -2.386932
H   10.254618   1.978373   0.897185
H    6.163890   3.274914   1.945757
H    5.171614   3.322422  -3.334384

