%chk=mol_6315.chk
# wB97XD/Def2SVP opt pop=full gfinput

C 4 H 7 N 1 O 2

1 2
O   10.299140   0.650311  -2.047348
C    9.484989   0.937191   0.088855
O    8.547987   3.090515   1.108494
C    8.473381   5.235940  -0.556052
C   10.900432   6.678783  -0.365530
C   12.864972   6.484917  -2.417356
N   11.367005   8.782464  -2.102075
H    9.412669  -0.568127   1.522741
H    6.917002   6.433989   0.098757
H    8.016709   4.668210  -2.498294
H   11.498795   6.968819   1.569777
H   12.451141   5.362306  -4.079125
H   14.840813   6.591648  -1.899439
H   12.411400  10.164515  -1.247692

