%chk=mol_4073.chk
# wB97XD/Def2SVP opt pop=full gfinput

C 4 H 6 N 2 O 1

1 2
C    1.967262  -0.095734   0.392137
C    4.465177  -0.006973   0.052024
C    6.190478   2.218085   0.010960
O    8.678775   1.349453  -0.748861
N    8.444657  -1.235824  -1.333580
C    6.173131  -2.123240  -0.518295
N    5.700510  -4.486720  -0.183190
H    0.914495  -1.852045   0.287465
H    0.891856   1.615640   0.743796
H    6.372705   3.061413   1.890142
H    5.568834   3.652954  -1.342235
H    9.956589  -2.340917  -0.913853
H    3.913150  -4.729436   0.509149

