%chk=mol_5410.chk
# wB97XD/Def2SVP opt pop=full gfinput

C 4 H 8 N 2 O 1

1 2
C    6.199738  -1.728381   4.297974
O    4.379686  -2.579401   2.491339
C    4.652600  -1.663431   0.116483
N    6.412465  -0.119733  -0.557809
N    6.203423   0.477024  -3.111453
C    8.008301   1.975501  -3.798161
C    8.198444   2.883798  -6.466681
H    5.768653  -2.627059   6.108880
H    6.075375   0.321764   4.540842
H    8.107341  -2.291482   3.729356
H    3.171716  -2.422723  -1.135820
H    9.471553   2.636262  -2.464997
H    6.655861   2.137148  -7.617146
H   10.009482   2.273983  -7.251692
H    8.136707   4.949041  -6.476054

