%chk=mol_1978.chk
# wB97XD/Def2SVP opt pop=full gfinput

C 6 H 9 N 1

1 2
N    3.633433  -0.643962   2.633768
C    4.593943   0.041914   0.143638
C    5.675660   2.644728   0.123286
C    8.110970   3.327033  -0.153824
C    8.338304   6.150756  -0.121434
C    5.637223   6.952529   0.177823
C    4.144528   4.908866   0.310709
H    2.773324  -2.360079   2.522614
H    2.272490   0.613783   3.149909
H    3.069161  -0.093220  -1.251509
H    6.037146  -1.336282  -0.407671
H    9.686585   2.046706  -0.355835
H    9.134255   6.856304  -1.893581
H    9.491150   6.791676   1.469735
H    5.009683   8.890935   0.272952
H    2.117589   4.914856   0.527630

