%chk=mol_3407.chk
# wB97XD/Def2SVP opt pop=full gfinput

C 6 H 12 O 1

1 2
C    2.730276   5.864652   1.826401
O    5.338004   5.235335   1.701283
C    5.826441   3.391378  -0.213841
C    8.653509   2.794262  -0.288807
C   10.188118   4.987497  -1.257972
C   11.665147   4.901326  -3.317093
C   13.189986   7.090347  -4.246971
H    2.479793   7.311445   3.279960
H    1.612390   4.205397   2.345358
H    2.078340   6.627062   0.017499
H    5.176924   4.095452  -2.051940
H    4.779665   1.663337   0.244379
H    8.958454   1.123952  -1.475838
H    9.322001   2.339556   1.617776
H   10.056745   6.723116  -0.158869
H   11.805176   3.166690  -4.408807
H   12.965052   8.763378  -3.052531
H   12.610199   7.585984  -6.167934
H   15.194267   6.586395  -4.280211

