%chk=mol_0243.chk
# wB97XD/Def2SVP opt pop=full gfinput

C 4 H 8 N 2

1 2
C    0.739110   2.549524   0.615427
C    2.635601   0.666223  -0.430272
N    1.820883  -1.837324   0.276920
C   -0.696874  -2.369490   0.367779
N   -2.548598  -0.820481   0.175801
C   -1.905562   1.843125  -0.279566
H    1.213884   4.470109   0.008504
H    0.795764   2.521745   2.688230
H    4.518959   1.036269   0.339943
H    2.751460   0.806119  -2.492587
H    3.032708  -3.279979  -0.063759
H   -1.075311  -4.398356   0.668850
H   -2.109331   2.238097  -2.303142
H   -3.287462   3.026907   0.708666

