%chk=mol_3305.chk
# wB97XD/Def2SVP opt pop=full gfinput

C 5 H 8 O 2

1 2
C    1.692193   4.162386  -3.675725
O    3.734212   5.744030  -2.936238
C    5.068094   4.791249  -0.759009
C    7.660572   3.745192  -1.251698
C    7.371425   6.300574  -0.025738
C    7.959980   6.675987   2.683959
O    7.678713   4.995907   4.249881
H    0.773748   5.006999  -5.321847
H    0.309348   4.018672  -2.145293
H    2.387764   2.283998  -4.186518
H    3.977666   3.951946   0.767059
H    8.322807   3.679939  -3.187515
H    8.285258   2.173790  -0.094808
H    7.803208   7.927590  -1.196971
H    8.657535   8.565845   3.216786

