%chk=mol_2333.chk
# wB97XD/Def2SVP opt pop=full gfinput

C 6 H 12 O 1

1 2
C    1.959986  -0.092200   0.185930
C    4.829932   0.080880  -0.023470
C    5.614943   0.282571  -2.800669
C    5.900897   2.234053   1.571043
C    8.482301   1.253266   2.284981
C    7.998965  -1.546949   2.604572
O    5.925671  -2.201796   0.981373
H    1.377100  -0.380761   2.153286
H    1.238073  -1.718101  -0.875359
H    1.043129   1.619325  -0.526572
H    7.674386   0.262842  -3.013773
H    4.882958   2.010933  -3.672191
H    4.912967  -1.342065  -3.878115
H    4.784673   2.494533   3.298895
H    5.964032   4.047680   0.581129
H    9.822229   1.575635   0.738751
H    9.258222   2.131290   3.987284
H    9.647052  -2.691745   2.114736
H    7.441061  -1.993019   4.546171

