%chk=mol_4417.chk
# wB97XD/Def2SVP opt pop=full gfinput

C 5 H 5 N 1 O 1

1 2
C    1.889726   0.000000   0.000000
C    4.618491   0.000000   0.000000
C    6.867567   0.000000   0.000000
C    9.596332   0.000000   0.000000
O   10.480912  -1.361510  -2.164908
C   10.507217   2.572238   0.000000
N   11.233269   4.622572   0.000000
H    1.145212   1.929203   0.022015
H    1.145042  -0.983640   1.659652
H    1.145136  -0.945430  -1.681762
H   10.309344  -1.002745   1.663129
H    9.766445  -0.523719  -3.638309

