%chk=mol_1707.chk
# wB97XD/Def2SVP opt pop=full gfinput

C 6 H 13 N 1

1 2
C    3.986906  -0.608737  -2.521821
N    4.369765   0.284876   0.076345
C    5.458436  -1.770220   1.588560
C    6.127305   2.442773   0.056314
C    4.779193   4.829989  -0.990046
C    6.063016   6.308019   1.172632
C    6.086657   3.798898   2.659204
H    3.092688   0.848884  -3.686931
H    2.706995  -2.236283  -2.543458
H    5.763249  -1.165054  -3.430665
H    4.190411  -3.407044   1.599672
H    5.688265  -1.200089   3.564231
H    7.303338  -2.380356   0.871447
H    8.020848   2.103530  -0.717586
H    2.710207   4.837964  -0.855744
H    5.326590   5.405089  -2.897517
H    7.950135   7.019029   0.697214
H    4.952443   7.838206   2.002864
H    7.745440   3.496655   3.853359
H    4.378987   3.521259   3.801864

