%chk=mol_4848.chk
# wB97XD/Def2SVP opt pop=full gfinput

C 5 H 9 N 1 O 1

1 2
C    1.884511  -0.249312   0.124382
C    4.754683  -0.058638  -0.086984
O    5.473629  -1.232593  -2.418113
C    5.778480   2.671487  -0.001871
C    4.699995   4.224861   2.184788
C    8.564900   2.629251   0.213993
N   10.747742   2.667292   0.419614
H    1.210653   0.335937   1.988351
H    1.266287  -2.198980  -0.198005
H    0.957921   0.913758  -1.315892
H    5.601394  -1.187693   1.431354
H    4.493637  -0.496866  -3.788976
H    5.300701   3.623720  -1.781804
H    5.014010   3.286102   4.004254
H    2.668010   4.536325   1.957076
H    5.596027   6.090342   2.283016

