%chk=mol_1457.chk
# wB97XD/Def2SVP opt pop=full gfinput

C 6 H 9 N 1

1 2
C    5.780956  -2.077773  -1.094284
C    4.707610   0.306136   0.103840
N    6.643521   2.282506   0.140690
C    6.498050   4.037022  -1.976918
C    5.605060   4.799111   0.628599
C    7.109603   6.541325   2.054491
C    8.367934   8.001308   3.253787
H    4.366987  -3.587815  -1.063632
H    7.447278  -2.748890  -0.065838
H    6.321625  -1.750586  -3.065041
H    4.151520  -0.120187   2.053660
H    2.982725   0.858238  -0.908580
H    5.097196   3.717696  -3.433349
H    8.292439   4.754816  -2.653610
H    3.578480   4.945923   0.913418
H    9.497140   9.280672   4.320518

