%chk=mol_1544.chk
# wB97XD/Def2SVP opt pop=full gfinput

C 5 H 10 N 2

1 2
C    3.615084  -0.447468   2.695297
C    4.340455   0.422751   0.051552
N    5.472458   2.978171   0.120848
C    3.931708   5.113901   0.075608
C    1.413836   5.311926  -0.051949
C    8.089370   3.078817   0.338261
N    9.627456   4.962440   0.379589
H    2.864938  -2.372986   2.632634
H    2.166533   0.776035   3.518935
H    5.250000  -0.431122   3.960658
H    2.687323   0.376547  -1.197878
H    5.675207  -0.936133  -0.771065
H    4.983113   6.874332   0.176160
H    0.170642   3.689237  -0.142183
H    0.525514   7.161231  -0.057108
H    8.944716   1.181778   0.498982
H    8.673087   6.624851   0.201842

