%chk=mol_6748.chk
# wB97XD/Def2SVP opt pop=full gfinput

C 5 H 10 N 2

1 2
C    1.474572  -0.198497  -0.988213
C    4.180584  -0.098568  -0.068767
C    6.124999  -1.413477  -1.728740
N    5.936027   1.326455  -1.703664
C    4.610970   0.061492   2.817109
C    2.973957   1.584006   4.590693
N    2.836555  -1.164752   4.557320
H    1.357371  -0.319912  -3.052834
H    0.442328   1.498458  -0.412017
H    0.507146  -1.855276  -0.215183
H    5.493453  -2.347399  -3.437752
H    7.778793  -2.240384  -0.852248
H    7.349957   2.115964  -0.658381
H    6.582011  -0.106505   3.390528
H    1.353138   2.578475   3.837713
H    3.844799   2.446817   6.228613
H    3.776599  -1.927445   6.059615

