%chk=mol_6877.chk
# wB97XD/Def2SVP opt pop=full gfinput

C 5 H 6 N 2

1 2
C    2.036085  -0.094808  -0.323918
C    4.506392  -0.066783   0.161704
N    6.098694  -2.036917   0.632113
C    8.491220  -1.173425   1.038102
N   10.479589  -2.468549   1.535157
C    8.492864   1.618361   0.816305
C    6.070159   2.189663   0.291641
H    0.989120  -1.855522  -0.390965
H    0.991766   1.634141  -0.666903
H    5.527336  -3.847369   0.664636
H   10.017098  -4.343271   1.592756
H   10.113172   2.815881   1.042033
H    5.358262   4.079163   0.000831

