%chk=mol_5908.chk
# wB97XD/Def2SVP opt pop=full gfinput

C 4 H 8 N 2 O 1

1 2
N    1.789325   0.449056  -1.589770
N    3.213215  -0.613216   0.426266
C    5.039937  -2.591041  -0.141843
C    3.731359  -5.104264  -0.082827
C    4.334144  -7.015155   1.465690
C    2.746849   0.217961   2.867281
O    1.233292   1.878766   3.443553
H    1.859094   2.373458  -1.354820
H   -0.069032   0.035659  -1.228908
H    6.566855  -2.507534   1.254438
H    5.855524  -2.246752  -2.012539
H    2.205651  -5.360265  -1.438100
H    5.851972  -6.867492   2.837745
H    3.308192  -8.791554   1.380710
H    3.902076  -0.772974   4.289981

