%chk=mol_3090.chk
# wB97XD/Def2SVP opt pop=full gfinput

C 6 H 14 O 1

1 2
C    3.702899  -2.319677  -2.995594
C    5.608594  -0.354815  -2.139737
C    4.398810   2.237436  -1.809753
O    6.330016   3.978308  -1.097477
C    5.412554   6.452602  -0.514478
C    7.553689   7.845368   0.818233
C    4.639051   7.871541  -2.900578
H    4.619833  -4.160686  -3.218241
H    2.865864  -1.797564  -4.815532
H    2.175037  -2.525487  -1.614733
H    7.153936  -0.231076  -3.513511
H    6.477301  -0.946715  -0.355023
H    2.942927   2.163736  -0.337108
H    3.532805   2.835742  -3.590820
H    3.806910   6.313311   0.787902
H    9.232711   7.958468  -0.389548
H    8.121759   6.827221   2.529814
H    6.991155   9.763232   1.352666
H    6.146372   7.813337  -4.320122
H    4.188351   9.847741  -2.487012
H    2.965963   7.017517  -3.766413

