%chk=mol_5296.chk
# wB97XD/Def2SVP opt pop=full gfinput

C 4 H 8 N 2 O 1

1 2
C    3.994976  -0.600649  -2.964942
O    4.199274   0.340018  -0.460451
C    6.067495   2.243124  -0.207454
C    6.439166   2.967418   2.566173
N    5.119401   5.391011   2.740916
N    4.870637   6.536034   0.471260
C    5.292367   4.800377  -1.199693
H    2.564075  -2.091039  -2.982668
H    5.793466  -1.410473  -3.586190
H    3.398691   0.891611  -4.264772
H    7.854307   1.648824  -1.067771
H    8.450326   3.254997   2.965377
H    5.664020   1.583307   3.890341
H    5.806524   6.554987   4.116466
H    5.150846   5.135539  -3.243412

