%chk=mol_4109.chk
# wB97XD/Def2SVP opt pop=full gfinput

C 4 H 8 N 2 O 1

1 2
C    2.084595   0.207152   0.114706
C    4.906164   0.079293  -0.146473
N    6.092231  -2.080286   0.019313
C    8.809412  -1.390083  -0.169584
C    8.968130   1.468752  -0.594394
N    6.327238   2.228157  -0.566521
O    5.822832   4.127351   1.204493
H    1.262186  -1.680552  -0.051590
H    1.304932   1.418561  -1.366593
H    1.598973   0.995149   1.961857
H    9.769638  -1.920774   1.586444
H    9.693048  -2.426824  -1.723865
H    9.811723   1.898986  -2.436235
H   10.089966   2.391713   0.877419
H    5.738380   5.649998   0.167486

