%chk=mol_0827.chk
# wB97XD/Def2SVP opt pop=full gfinput

C 5 H 10 O 1

1 2
C    6.654500  -1.466957   2.244258
O    8.487648   0.448470   1.818124
C    7.617580   2.280710   0.032333
C    9.675360   4.265112  -0.402814
C   11.926458   3.191558  -1.770447
C   12.791707   4.038099  -3.993143
H    7.438038  -2.829487   3.585000
H    6.212928  -2.454962   0.482239
H    4.936040  -0.652938   3.055914
H    5.930641   3.207394   0.798731
H    7.113628   1.347620  -1.748261
H   10.325936   5.005072   1.419695
H    8.871112   5.846831  -1.471983
H   12.894678   1.630569  -0.843895
H   11.898717   5.597633  -4.979051
H   14.437923   3.179634  -4.867141

