%chk=mol_4816.chk
# wB97XD/Def2SVP opt pop=full gfinput

C 6 H 11 N 1

1 2
C   -3.195451   1.590167   1.061100
C   -2.231332  -0.567296  -0.514308
C   -0.649083  -2.653686   0.558849
C    1.985913  -2.484423  -0.607093
C    3.264521   0.086927  -0.139103
N    1.576599   2.192838   0.499568
C   -0.944428   1.969813  -0.636516
H   -4.959208   2.468625   0.501760
H   -2.919268   1.523459   3.087888
H   -3.308551  -1.149861  -2.155365
H   -0.528367  -2.519742   2.623223
H   -1.505526  -4.484528   0.112892
H    3.185096  -4.007920   0.119506
H    1.821224  -2.772342  -2.657465
H    4.631492  -0.118335   1.403859
H    4.376133   0.596530  -1.811680
H    1.433508   2.310417   2.416601
H   -1.221670   3.067744  -2.350007

