%chk=mol_4960.chk
# wB97XD/Def2SVP opt pop=full gfinput

C 4 H 8 N 2 O 1

1 2
C    1.973214   0.194736  -0.493086
N    4.648726  -0.117258   0.105730
C    6.019968  -1.597518  -1.768992
C    6.322551   1.240189  -1.638430
C    8.587105   2.326593  -0.435261
N   10.599077   2.545329  -1.801533
O   12.516261   3.621868  -0.328850
H    1.255118   1.906866   0.419916
H    0.904801  -1.410662   0.256493
H    1.561462   0.337732  -2.519610
H    4.993356  -2.394000  -3.350144
H    7.542596  -2.766767  -1.055507
H    5.473233   2.372173  -3.118917
H    8.480543   2.925164   1.560517
H   13.936409   3.672872  -1.503088

