%chk=mol_1979.chk
# wB97XD/Def2SVP opt pop=full gfinput

C 6 H 9 N 1

1 2
N    5.525446  -2.222224  -1.027009
C    4.504748   0.032938   0.224613
C    6.340145   2.294014   0.143260
C    5.331428   4.560967   1.556246
C    5.152678   6.548563  -0.010412
C    5.982646   5.817314  -2.498615
C    6.679123   3.381892  -2.472744
H    4.269836  -3.670132  -0.837281
H    7.138554  -2.778748  -0.134435
H    4.083698  -0.449056   2.195899
H    2.704066   0.524361  -0.677183
H    8.181532   1.756973   0.929934
H    4.854196   4.571323   3.539382
H    4.502840   8.419184   0.476986
H    6.020025   7.065176  -4.111647
H    7.375223   2.317806  -4.069129

