%chk=mol_2120.chk
# wB97XD/Def2SVP opt pop=full gfinput

C 7 H 10

1 2
C    2.157708   0.433163   0.162611
C    4.975838  -0.093069  -0.090348
C    5.544532  -1.437496  -2.461406
C    6.004170  -2.547313  -4.385601
C    6.471254   2.319280  -0.287579
C    7.248139   3.711384   2.079114
C    9.213587   2.407209   0.498718
H    1.762718   1.489936   1.898003
H    1.076955  -1.331633   0.223630
H    1.441956   1.554016  -1.426176
H    5.607574  -1.224051   1.526766
H    6.416584  -3.530065  -6.095539
H    5.909268   3.472372  -1.891314
H    6.791883   2.894834   3.901812
H    7.195076   5.759489   2.045175
H   10.485013   3.567425  -0.612744
H   10.075944   0.704528   1.243667

