%chk=mol_6768.chk
# wB97XD/Def2SVP opt pop=full gfinput

C 5 H 12 N 2

1 2
C    1.686051  -0.074455  -0.407236
C    4.482317   0.133736   0.079123
C    5.212734  -0.050682   2.822136
N    6.214761  -1.023362  -1.758881
C    6.029474   1.742951  -1.739890
C    8.275489   3.274952  -0.957127
N   10.017268   3.373407  -3.096732
H    1.224013   0.086209  -2.420475
H    0.672459   1.428652   0.593109
H    0.967332  -1.897644   0.261481
H    7.237897  -0.380950   3.090439
H    4.216886  -1.621328   3.732738
H    4.703793   1.692873   3.813826
H    5.262282  -1.739512  -3.275935
H    5.060592   2.598657  -3.333061
H    9.258997   2.468511   0.673706
H    7.677919   5.191474  -0.458466
H   10.457820   1.549122  -3.555085
H   11.665336   4.180301  -2.519137

