%chk=mol_3534.chk
# wB97XD/Def2SVP opt pop=full gfinput

C 6 H 6 O 1

1 2
O    2.039544  -0.057296   0.563856
C    4.305269  -0.075986   0.217772
C    6.282206   2.036728  -0.135928
C    8.084721  -0.035961  -1.142245
C    6.381851  -2.145652   0.003194
C    5.775192  -4.209063  -1.680552
C    5.286887  -5.941904  -3.063038
H    6.864997   2.898292   1.650638
H    5.763438   3.495502  -1.499120
H    8.222293  -0.050531  -3.211344
H   10.003284   0.043634  -0.372673
H    7.014248  -2.771453   1.876045
H    4.840156  -7.484015  -4.279360

