%chk=mol_0066.chk
# wB97XD/Def2SVP opt pop=full gfinput

C 4 H 4 O 1

1 2
C    1.874155  -0.006425  -0.011112
C    4.707081  -0.104615   0.003156
O    5.911214  -2.081118   0.012227
C    6.028113   2.287986   0.000756
C    7.137968   4.270176  -0.001020
H    1.189904   1.943791   0.013606
H    1.152997  -0.980201   1.662241
H    1.171460  -0.932996  -1.718668
H    8.138635   6.016907  -0.001663

