%chk=mol_1539.chk
# wB97XD/Def2SVP opt pop=full gfinput

C 5 H 14 N 2

1 2
C    2.066189  -0.452552   0.259025
C    4.944525  -0.173723   0.378342
N    6.041020  -1.663148  -1.693516
C    5.850384   2.619689   0.232380
C    4.626522   4.235103   2.314896
C    8.762471   2.768902   0.408615
N    9.704405   5.357525   0.119903
H    1.163977   0.344629   1.939520
H    1.513293  -2.447328   0.183209
H    1.283351   0.489515  -1.409528
H    5.604040  -1.000062   2.161828
H    5.357922  -1.024137  -3.379529
H    5.455469  -3.494576  -1.550615
H    5.263190   3.409009  -1.597026
H    5.039314   3.466306   4.192112
H    2.572654   4.326698   2.089754
H    5.303762   6.188966   2.261945
H    9.646070   1.612787  -1.062328
H    9.399309   2.033950   2.237190
H    9.212151   6.014129  -1.623237
H   11.631038   5.324549   0.151159

