%chk=mol_3135.chk
# wB97XD/Def2SVP opt pop=full gfinput

C 5 H 10 O 2

1 2
C    1.751587  -0.872902   0.360409
C    4.372581  -0.593487  -0.805345
C    4.754230  -2.552094  -2.908326
O    7.256832  -2.362555  -3.905875
O    4.605149   1.849872  -1.971891
C    5.396321   3.861183  -0.569242
C    6.048484   3.972242   1.871471
H    1.439896   0.541822   1.834754
H    1.503088  -2.748361   1.193457
H    0.277922  -0.580562  -1.063160
H    5.865200  -0.883088   0.600763
H    3.439793  -2.240440  -4.476402
H    4.501044  -4.476062  -2.195635
H    7.520014  -0.570792  -4.258819
H    5.448553   5.529414  -1.762680
H    6.017209   2.357452   3.125286
H    6.647943   5.757637   2.683166

