%chk=mol_0692.chk
# wB97XD/Def2SVP opt pop=full gfinput

C 5 H 8 O 1

1 2
C    1.780972   0.223120  -0.005669
C    4.655208   0.213898  -0.171776
C    5.551354  -0.728282  -2.701382
C    7.027797  -2.758074  -3.030611
C    5.707124   2.860819   0.205489
O    4.751773   4.791476  -0.653600
H    1.157552   0.987741   1.814931
H    1.022984  -1.693743  -0.187177
H    0.926684   1.390366  -1.489879
H    5.397946  -0.957222   1.370127
H    4.944752   0.337618  -4.356197
H    7.686310  -3.895954  -1.455278
H    7.605165  -3.334233  -4.915763
H    7.507107   2.951355   1.257121

