%chk=mol_4021.chk
# wB97XD/Def2SVP opt pop=full gfinput

C 4 H 6 N 2 O 1

1 2
C    1.978675  -0.116048   0.392704
C    4.466897   0.032636  -0.022355
C    6.126209   2.309812  -0.091595
N    8.598008   1.434812  -1.056659
N    8.408091  -1.215094  -1.192266
C    6.072748  -2.183049  -0.573759
O    5.451633  -4.395370  -0.496015
H    1.015766  -1.931149   0.363848
H    0.855706   1.554545   0.769685
H    6.381397   3.079743   1.812531
H    5.353159   3.785632  -1.318991
H    8.799547   2.098749  -2.864541
H    9.910518  -2.375990  -1.470906

