%chk=mol_0549.chk
# wB97XD/Def2SVP opt pop=full gfinput

C 6 H 10

1 2
C    1.505639   2.623752  -1.188165
C   -0.610117   1.802345   0.522604
C   -2.634543   0.015401  -0.353379
C   -1.498288  -2.604855   0.139122
C    1.339721  -2.262834  -0.329077
C    1.850590   0.391721   0.537514
H    1.329951   2.295772  -3.201914
H    2.495950   4.356707  -0.716263
H   -1.108098   2.921479   2.156499
H   -4.401739   0.273292   0.685612
H   -3.015247   0.278413  -2.371663
H   -1.806049  -3.118747   2.125526
H   -2.337346  -4.079597  -1.041579
H    2.445854  -3.651404   0.727507
H    1.777930  -2.468965  -2.341975
H    3.053174   0.536758   2.181708

