%chk=mol_4640.chk
# wB97XD/Def2SVP opt pop=full gfinput

C 4 H 9 N 1 O 2

1 2
C   -0.983924  -3.192220   2.448367
C    0.965045  -2.201437   0.570754
C    3.134961  -4.073097   0.283213
O   -0.160476  -1.902368  -1.879389
N   -1.564372   0.372937  -1.926689
C   -4.067957   0.055917  -2.475012
O   -5.447457   1.758598  -3.209719
H   -2.484234  -1.799870   2.752235
H   -0.118561  -3.610114   4.279342
H   -1.897965  -4.905956   1.732142
H    1.735732  -0.388887   1.220801
H    2.457853  -5.887574  -0.449830
H    4.091616  -4.401153   2.086919
H    4.522795  -3.363486  -1.078977
H   -0.719022   1.888744  -2.740424
H   -4.748560  -1.883944  -2.131781

