%chk=mol_5616.chk
# wB97XD/Def2SVP opt pop=full gfinput

C 6 H 9 N 1

1 2
C    1.922551   0.029140   0.951496
C    4.330496   0.004365   0.178126
C    5.846869  -2.344848  -0.442838
C    7.979180  -1.471927  -2.120537
N   10.128535  -0.050909  -1.129697
C    7.998020   1.361094  -2.163774
C    5.875215   2.310870  -0.515007
H    0.915043   1.792783   1.241777
H    0.894294  -1.711865   1.296466
H    4.682118  -3.742017  -1.427405
H    6.603704  -3.194676   1.284919
H    8.223200  -2.509481  -3.860144
H   10.110696  -0.022488   0.803039
H    8.253398   2.344130  -3.934807
H    6.641934   3.207243   1.186294
H    4.725638   3.693432  -1.543472

