%chk=mol_4284.chk
# wB97XD/Def2SVP opt pop=full gfinput

C 4 H 2 N 2 O 1

1 2
C    1.883131  -0.051212   0.003647
C    4.149102   0.054424  -0.001550
C    6.820400   0.185836  -0.007710
N    8.251490   2.208126  -0.015401
C   10.611303   1.159574  -0.018330
N   10.692430  -1.366064  -0.012869
O    8.126143  -2.031512  -0.005669
H   -0.128596  -0.137648   0.008220
H   12.330387   2.264327  -0.024453

