%chk=mol_2861.chk
# wB97XD/Def2SVP opt pop=full gfinput

C 6 H 14 O 1

1 2
C    2.179610   0.993127   1.134478
C    4.767741   2.059688   1.796128
C    6.659659   1.643136  -0.357574
C    9.301931   2.777935   0.120243
C   10.581578   1.651356   2.454641
C   10.982615   2.371852  -2.202703
O    9.077809   5.438821   0.527460
H    0.859731   1.297580   2.696847
H    2.288402  -1.040030   0.772879
H    1.406278   1.913329  -0.548210
H    5.432188   1.138957   3.527061
H    4.577465   4.081638   2.203213
H    5.864954   2.503736  -2.070478
H    6.833401  -0.389265  -0.730436
H    9.577302   2.160467   4.190279
H   12.499594   2.403335   2.673604
H   10.702785  -0.410316   2.334511
H   10.145675   3.246058  -3.883368
H   11.274578   0.359842  -2.588452
H   12.831562   3.266599  -1.942336
H    8.274544   6.171146  -0.954614

