%chk=mol_2947.chk
# wB97XD/Def2SVP opt pop=full gfinput

C 6 H 14 O 1

1 2
C    1.765420  -0.212367  -0.857161
C    4.641640  -0.051060  -0.816192
C    5.724075   2.661963  -0.697044
C    4.827324   4.269949  -2.929718
O    4.828118   3.853870   1.557890
C    8.640376   2.506571  -0.581941
C    9.984500   5.044322  -0.349467
H    1.171592  -2.191156  -0.738996
H    0.989139   0.558244  -2.611167
H    0.924700   0.798201   0.737636
H    5.387250  -1.035872  -2.480776
H    5.286943  -1.105150   0.850452
H    5.438670   3.470350  -4.736466
H    5.530586   6.211870  -2.793450
H    2.764821   4.451496  -2.950240
H    5.398683   2.855679   2.990851
H    9.361609   1.521475  -2.257051
H    9.187867   1.375381   1.067185
H    9.756222   6.181275  -2.061521
H   12.014048   4.741890  -0.078820
H    9.284867   6.130706   1.263528

