%chk=mol_6700.chk
# wB97XD/Def2SVP opt pop=full gfinput

C 5 H 8 N 2

1 2
C    1.775813  -0.047923  -0.318816
C    4.642868  -0.059640  -0.000775
C    5.513900   2.365729   1.237242
C    6.743639   2.322833   3.442155
N    7.228599   0.066140   4.578844
C    6.519329  -2.147069   3.462867
N    5.331938  -2.411026   1.359658
H    1.142793  -1.756198  -1.302758
H    1.146516   1.590696  -1.416595
H    0.816570   0.000435   1.516732
H    5.517585  -0.155524  -1.877197
H    5.128017   4.140220   0.286426
H    7.405553   4.005010   4.406199
H    8.181437   0.061511   6.235907
H    7.076382  -3.824277   4.566145

