%chk=mol_4843.chk
# wB97XD/Def2SVP opt pop=full gfinput

C 5 H 7 N 1 O 1

1 2
C    1.617795  -0.421919  -0.247819
C    4.429688  -0.041612   0.228449
O    5.844470  -1.376798  -1.621385
C    5.170177   2.686661   0.079879
C    6.307717   3.940778   1.969359
C    6.986166   6.532670   1.762037
N    7.525570   8.647954   1.596214
H    0.471997   0.554672   1.171026
H    1.149086  -2.437822  -0.199857
H    1.069736   0.266017  -2.123296
H    4.918712  -0.845482   2.072519
H    5.306805  -0.801074  -3.280527
H    4.752642   3.667543  -1.679891
H    6.763727   3.005288   3.735044

