%chk=mol_6725.chk
# wB97XD/Def2SVP opt pop=full gfinput

C 5 H 8 N 2

1 2
C    1.830370  -0.038966  -0.014570
C    4.627769   0.115859  -0.000964
C    6.226723   2.181764   0.004989
C    8.717023   1.248221   0.016063
N   10.835010   2.620086   0.023225
C    8.617926  -1.336112   0.017291
N    6.116269  -2.016413   0.006501
H    0.982884   1.847963   0.002154
H    1.150541  -1.061440   1.650128
H    1.165810  -1.025195  -1.707065
H    5.641683   4.139993   0.000680
H   10.822197   4.535872   0.051079
H   12.577979   1.825929   0.059942
H   10.084259  -2.756846   0.023735
H    5.468244  -3.814261   0.003798

