%chk=mol_6712.chk
# wB97XD/Def2SVP opt pop=full gfinput

C 3 H 6 O 3 S 1

1 2
O    1.722542   0.025833   0.369668
S    4.382672   0.080162  -0.267226
O    5.272185   0.329512  -2.846022
C    5.905470   2.391316   1.597877
C    8.356105   1.100539   2.344697
O    7.781098  -1.449533   3.102269
C    6.020819  -2.448613   1.263150
H    4.716152   2.734037   3.253182
H    6.187171   4.131168   0.529407
H    9.684998   1.019035   0.756892
H    9.281712   2.073748   3.915569
H    7.070505  -3.521769  -0.155732
H    4.664392  -3.661685   2.234922

