%chk=mol_5179.chk
# wB97XD/Def2SVP opt pop=full gfinput

C 4 H 10 N 2 O 1

1 2
C    1.983948  -0.213274   0.195738
N    4.725298  -0.522490  -0.141181
C    5.268198  -3.236817  -0.426398
N    5.717121   1.008981  -1.955413
C    8.030184   1.670726  -1.490276
C    9.443093   3.332797  -3.337256
O    7.799070   4.771596  -4.879915
H    1.532568   1.776853   0.546509
H    1.310147  -1.281858   1.835699
H    0.935207  -0.824261  -1.482415
H    4.565673  -4.306535   1.201034
H    7.310840  -3.559753  -0.515177
H    4.420579  -4.004103  -2.152587
H    9.095441   0.998437   0.174989
H   10.629672   2.131536  -4.530052
H   10.663120   4.619984  -2.276666
H    6.238591   3.785178  -4.992562

