%chk=mol_1930.chk
# wB97XD/Def2SVP opt pop=full gfinput

C 6 H 11 N 1

1 2
N    2.056287   0.004271   1.272069
C    4.567676   0.034299   0.100874
C    4.810676   2.308830  -1.679891
C    7.425849   2.402220  -2.915677
C    8.344313  -0.128180  -3.802469
C    7.271931  -2.315651  -3.104574
C    5.067849  -2.461897  -1.320692
H    1.793218   1.620516   2.282373
H    1.944566  -1.453710   2.523843
H    5.975805   0.231114   1.615054
H    4.483923   4.077783  -0.651294
H    3.359272   2.200643  -3.157978
H    8.808014   3.161890  -1.573764
H    7.360578   3.707529  -4.520395
H    9.950768  -0.151632  -5.085083
H    7.989611  -4.089670  -3.850393
H    3.398918  -3.021445  -2.412405
H    5.415067  -3.963360   0.062739

