%chk=mol_1378.chk
# wB97XD/Def2SVP opt pop=full gfinput

C 6 H 7 N 1

1 2
C    2.109161  -0.307647  -1.194893
C    4.321634  -0.283005  -0.678128
C    7.022997  -0.254848  -0.052081
N    8.033868   2.277385  -0.442290
C   10.705601   2.383965   0.217375
C   11.639787   4.976707  -0.104936
C   12.404654   7.098019  -0.369120
H    0.153295  -0.319213  -1.668893
H    8.016407  -1.616377  -1.255950
H    7.273839  -0.845993   1.917959
H    7.063362   3.517593   0.664295
H   11.794404   1.110233  -1.000081
H   10.999188   1.792897   2.181292
H   13.073182   8.980545  -0.618394

