%chk=mol_2660.chk
# wB97XD/Def2SVP opt pop=full gfinput

C 6 H 10 O 1

1 2
C    1.553034   1.215793   0.411412
C    4.208930   0.731362  -0.570886
C    6.113945   2.272301   0.830138
O    8.233764   3.056103  -0.653656
C    6.553060   5.021361   0.191051
C    7.247912   6.749705   2.240025
C    5.649468   7.854193   3.863753
H    0.191543   0.003950  -0.563535
H    1.002160   3.185039   0.103727
H    1.430447   0.834106   2.439977
H    4.270743   1.140280  -2.602739
H    4.670742  -1.275490  -0.344610
H    6.471707   1.599426   2.727102
H    5.371792   5.874157  -1.252869
H    9.257145   7.147095   2.427221
H    3.627991   7.525627   3.765279
H    6.345304   9.110200   5.328234

