%chk=mol_4889.chk
# wB97XD/Def2SVP opt pop=full gfinput

C 5 H 11 N 1 O 1

1 2
C    5.962521  -2.025314  -1.797810
C    4.893994  -0.189710   0.146321
O    5.144023  -1.276945   2.618612
C    6.099431   2.501601   0.068692
N    4.863739   4.106375   1.976011
C    8.943280   2.480530   0.418461
C   10.283909   3.580143   2.268049
H    5.815953  -1.256989  -3.710950
H    4.918334  -3.811823  -1.729213
H    7.935716  -2.498312  -1.405522
H    2.858929  -0.007389  -0.203051
H    6.928832  -1.185482   3.065533
H    5.727722   3.334819  -1.792292
H    4.763489   3.067933   3.604709
H    3.021823   4.353608   1.466673
H   10.001848   1.495605  -1.045151
H    9.384096   4.655529   3.767037
H   12.330974   3.467288   2.297359

