%chk=mol_6698.chk
# wB97XD/Def2SVP opt pop=full gfinput

C 3 H 4 O 3 S 1

1 2
O    1.801476  -0.332762   0.022601
C    4.474872   0.131771   0.033448
S    5.434304   3.411220  -0.032711
O    5.152149   4.572022  -2.487730
O    5.113542   4.681192   2.362800
C    8.822659   3.254543  -0.002230
C   11.089725   3.157638   0.017990
H    1.567925  -2.154363   0.061737
H    5.293142  -0.771707  -1.635350
H    5.266138  -0.695419   1.754025
H   13.103702   3.112436   0.035036

