%chk=mol_5506.chk
# wB97XD/Def2SVP opt pop=full gfinput

C 5 H 9 N 1 O 1

1 2
N    1.855919  -0.039420  -0.255963
C    4.609514  -0.026834  -0.053139
C    5.721070  -2.309604  -1.287962
C    7.687765  -1.724167  -2.766956
C    8.202299   1.058700  -2.790842
C    5.807148   2.169462  -1.598444
O    4.119735   2.988961  -3.565781
H    1.183970   1.643249   0.410637
H    1.152355  -1.389346   0.925078
H    5.208841   0.052799   1.927048
H    5.053751  -4.214203  -0.967729
H    8.806445  -3.082276  -3.806381
H    9.875879   1.454239  -1.640188
H    8.504580   1.744349  -4.717890
H    6.207146   3.820856  -0.419670
H    2.757564   1.730687  -3.558316

