%chk=mol_6046.chk
# wB97XD/Def2SVP opt pop=full gfinput

C 4 H 8 N 2 O 1

1 2
O    2.551546   0.266792   1.605360
C    4.537799   0.116161   0.406953
C    5.860343  -2.418774  -0.093749
N    7.552139  -2.397533  -2.320319
C    9.251683  -0.212689  -2.203213
C    7.711519   2.237058  -2.246582
N    5.772603   2.280276  -0.319402
H    4.400908  -3.852056  -0.402776
H    6.929323  -2.922140   1.607212
H    8.582929  -4.024096  -2.319620
H   10.414942  -0.308498  -0.490289
H   10.533617  -0.249047  -3.827055
H    8.934587   3.877529  -1.947816
H    6.761818   2.461293  -4.073569
H    4.764056   3.879853  -0.034185

