%chk=mol_6224.chk
# wB97XD/Def2SVP opt pop=full gfinput

C 5 H 7 N 1 O 1

1 2
O    2.345887  -0.590029  -1.486440
C    4.540842  -0.234950  -0.839171
C    5.414500   2.254141   0.042916
C    7.815454   2.581612   0.759386
N    8.795371   4.843255   1.615206
C   10.666332   4.696366   3.662138
C   11.464156   5.352800   1.039274
H    5.963560  -1.755442  -0.883787
H    4.038496   3.768454   0.084716
H    9.154098   1.020206   0.701561
H   11.054577   2.830904   4.399075
H   10.457631   6.200910   5.029695
H   11.813907   7.314280   0.583888
H   12.429484   3.958050  -0.099286

