%chk=mol_3343.chk
# wB97XD/Def2SVP opt pop=full gfinput

C 5 H 10 O 2

1 2
C    2.230368   0.473962   0.221381
O    4.915953   0.457200   0.256587
C    5.924443   2.950278   0.090820
C    8.738547   2.766937   0.192676
C   10.290277   2.739441  -2.198129
C   10.328959   5.019094  -0.504179
O   12.584914   5.383433   0.950249
H    1.565298  -1.467694   0.453837
H    1.540108   1.197860  -1.586935
H    1.486837   1.615017   1.777401
H    5.253325   4.073588   1.695519
H    5.286301   3.843079  -1.666852
H    9.355430   1.600636   1.758541
H    9.323153   2.906626  -3.996544
H   11.941312   1.533513  -2.259772
H    9.378276   6.706033  -1.181022
H   13.285210   3.800088   1.565733

