%chk=mol_3715.chk
# wB97XD/Def2SVP opt pop=full gfinput

C 6 H 8 O 1

1 2
O    5.997424   5.818902   3.738237
C    4.726564   5.226850   1.893506
C    5.578831   3.444574  -0.164822
C    8.328061   2.590682   0.073926
C   10.287707   4.690792  -0.281569
C   10.141537   5.866088  -2.798061
C   10.026207   6.855511  -4.834014
H    2.786061   5.960064   1.669025
H    5.232161   4.359504  -1.987123
H    4.341249   1.786906  -0.062607
H    8.669289   1.101559  -1.329007
H    8.620893   1.728079   1.936497
H   12.176072   3.873731  -0.033108
H   10.085336   6.141610   1.178830
H    9.931569   7.751317  -6.637531

