%chk=mol_0421.chk
# wB97XD/Def2SVP opt pop=full gfinput

C 4 H 10 N 2

1 2
C    1.862079  -0.425472   0.228166
C    4.726621  -0.261085   0.403759
C    5.627491   2.481740   0.306665
N    8.390120   2.592969   0.465440
N    9.391599   4.946717   0.369819
C   11.824677   4.978370   0.556921
H    1.249733  -2.397609   0.332592
H    1.185444   0.362846  -1.560045
H    0.963609   0.609890   1.776248
H    5.559725  -1.342537  -1.156796
H    5.351175  -1.152242   2.168404
H    4.800887   3.544030   1.881411
H    4.993904   3.364544  -1.457943
H    9.147975   1.429824  -0.879970
H   12.832601   6.797704   0.496034
H   12.993076   3.264672   0.789792

