%chk=mol_3920.chk
# wB97XD/Def2SVP opt pop=full gfinput

C 7 H 12

1 2
C    2.042435  -0.832481   0.934507
C    4.869635  -0.562080   0.501420
C    5.606288   2.185185  -0.002041
C    8.452084   2.446515  -0.435771
C    9.195899   5.195216  -0.920467
C   11.935076   5.431621  -1.324679
C   14.172039   5.627359  -1.653491
H    1.560139  -2.810212   1.300283
H    0.975401  -0.207473  -0.723765
H    1.430844   0.288939   2.561675
H    5.427615  -1.746296  -1.104091
H    5.881961  -1.267912   2.165078
H    5.037840   3.361861   1.606910
H    4.583172   2.886103  -1.663054
H    9.020173   1.271578  -2.048161
H    9.476277   1.724356   1.217173
H    8.633044   6.370229   0.689826
H    8.188146   5.914389  -2.580799
H   16.157234   5.798606  -1.944112

