%chk=mol_1055.chk
# wB97XD/Def2SVP opt pop=full gfinput

C 4 H 5 N 1 O 1

1 2
C    2.323721  -0.446901  -1.322657
N    4.675409  -0.428401  -0.684213
O    5.530472   2.088922  -0.704395
C    8.141998   2.129967   0.000000
C    9.052884   4.702224   0.000000
C    9.803654   6.822289   0.000000
H    1.289549  -2.252119  -1.421622
H    1.257632   1.281669  -1.788021
H    9.218065   0.980088  -1.344975
H    8.341402   1.291307   1.883112
H   10.467874   8.723316  -0.002400

