%chk=mol_5274.chk
# wB97XD/Def2SVP opt pop=full gfinput

C 5 H 11 N 1 O 1

1 2
C    4.383371  -1.541676  -1.722410
O    3.700027   0.824091  -0.651332
C    5.852652   2.431700  -0.190976
C    6.404697   4.462210  -2.110956
C    4.913515   4.699806  -4.489668
C    5.219216   5.159897   0.374922
N    6.697454   6.597280   2.223546
H    2.658826  -2.621182  -2.080192
H    5.573199  -2.603910  -0.406650
H    5.378784  -1.263962  -3.513265
H    7.445048   1.620516   0.817666
H    8.369087   4.950365  -2.421193
H    2.897706   4.332065  -4.203393
H    5.617948   3.367133  -5.905961
H    5.106928   6.611226  -5.256764
H    3.222720   5.654722   0.347540
H    8.531811   6.016737   2.271564
H    6.000806   6.305034   3.997092

