%chk=mol_0629.chk
# wB97XD/Def2SVP opt pop=full gfinput

C 4 H 6 O 2

1 2
C    1.966487  -0.176954   0.220172
C    4.754211   0.331439  -0.184173
C    6.021083   2.222431   1.604774
C    7.550930  -0.108678   2.418131
O    9.240609  -0.584398   3.877151
O    6.293279  -1.702794   0.846730
H    1.348849  -1.790194  -0.917424
H    0.840682   1.464179  -0.341700
H    1.545513  -0.594565   2.203118
H    5.216854   0.648346  -2.179440
H    4.844275   3.011694   3.104253
H    7.148570   3.691693   0.696648

