%chk=mol_1926.chk
# wB97XD/Def2SVP opt pop=full gfinput

C 6 H 13 N 1

1 2
N    1.876744   0.052667   0.192506
C    4.640128   0.024188   0.048226
C    5.565319  -2.524277  -0.980730
C    4.922132  -2.906229  -3.772611
C    5.875196  -0.716471  -5.390122
C    4.938629   1.831220  -4.413928
C    5.580097   2.201474  -1.620591
H    1.285467   1.713245   0.965518
H    1.275622  -1.344446   1.375399
H    5.381298   0.281267   1.965580
H    4.775640  -4.085059   0.131903
H    7.624629  -2.628760  -0.749787
H    5.765347  -4.676486  -4.439363
H    2.872100  -3.098357  -4.004330
H    7.948264  -0.725126  -5.401650
H    5.262396  -0.979823  -7.350524
H    5.793447   3.354585  -5.526882
H    2.889486   1.968679  -4.691302
H    7.640352   2.351027  -1.423228
H    4.801019   4.006503  -0.964025

