%chk=mol_0933.chk
# wB97XD/Def2SVP opt pop=full gfinput

C 4 H 7 N 1 O 1

1 2
C    0.123305   1.718574  -0.228997
N   -1.373547  -0.566294   0.048849
C    1.389194  -0.832084  -0.012245
C    2.740103  -1.701698   2.366958
C    2.196995  -4.189069   3.650516
O    4.342175  -3.875564   2.037522
H    0.081069   2.638077  -2.055984
H    0.159682   2.969950   1.389402
H   -2.130080  -1.121099  -1.638733
H    2.142590  -1.607288  -1.762585
H    3.481405  -0.207416   3.563475
H    0.631490  -5.310395   2.959122
H    2.529398  -4.328267   5.663471

