%chk=mol_3868.chk
# wB97XD/Def2SVP opt pop=full gfinput

C 4 H 5 N 1 O 2

1 2
C    3.498015  -0.761673  -0.021959
O    1.925499  -2.979663   0.346595
C   -0.109736  -1.800210  -1.051122
C   -2.281769  -0.690241   0.509187
N   -2.144064   1.724942   0.880764
O    0.117749   2.673774  -0.296007
C    1.422000   0.582300  -1.509683
H    5.199959  -1.216946  -1.104998
H    4.024436   0.105579   1.779196
H   -0.670796  -2.878865  -2.716973
H   -3.829322  -1.891729   1.200373
H    1.866237   0.991539  -3.484239

