%chk=mol_0607.chk
# wB97XD/Def2SVP opt pop=full gfinput

C 5 H 8 O 1

1 2
C    1.960175  -0.061945  -0.083318
C    4.777058  -0.060963  -0.041177
C    6.238534  -1.251603  -2.170653
C    6.237986   1.586973  -1.860719
C    8.574311   2.885272  -1.034757
O   10.139515   3.603311  -2.578569
H    1.232442   1.480978   1.085931
H    1.238262  -1.844051   0.678525
H    1.208820   0.171228  -1.997176
H    5.501692  -0.316454   1.858848
H    5.213395  -2.030416  -3.765242
H    7.952043  -2.279558  -1.712791
H    5.169176   2.650114  -3.252823
H    8.815554   3.187344   1.011967

