%chk=mol_2451.chk
# wB97XD/Def2SVP opt pop=full gfinput

C 6 H 8 O 1

1 2
C    2.019569  -0.147569  -0.061511
C    4.785618   0.286369   0.044654
C    6.036636   2.379883  -0.627597
O    8.650940   2.219937  -0.397976
C    9.085633  -0.287333   0.724710
C    8.599936  -2.583445  -0.874887
C    6.555687  -1.667324   0.881822
H    1.604415  -1.988559  -0.911283
H    1.066977   1.297713  -1.196801
H    1.211560  -0.112949   1.843107
H    5.337928   4.145530  -1.350209
H   10.382930  -0.432766   2.300080
H    9.577831  -4.312620  -0.379325
H    8.360942  -2.321982  -2.892131
H    6.135261  -2.694277   2.598411

