%chk=mol_2868.chk
# wB97XD/Def2SVP opt pop=full gfinput

C 6 H 12 O 1

1 2
C    1.072193  -0.386298  -1.874646
C    3.740014  -0.982809  -0.991142
C    5.097895   1.385377  -0.047319
C    7.767625   0.769119   0.870389
C    9.137771   3.135075   1.782257
C   11.769423   2.580402   2.733111
O   12.744086   0.476381   2.774269
H    0.142769  -2.103813  -2.556346
H    1.091808   0.989631  -3.419384
H   -0.064402   0.387885  -0.329039
H    4.802380  -1.824039  -2.557858
H    3.654390  -2.396267   0.520620
H    4.013268   2.239609   1.498836
H    5.192363   2.785324  -1.573027
H    8.848492  -0.114310  -0.662651
H    7.672836  -0.619131   2.407606
H    8.092620   4.025324   3.331096
H    9.308961   4.509699   0.244304
H   12.823587   4.242889   3.420744

