%chk=mol_6589.chk
# wB97XD/Def2SVP opt pop=full gfinput

C 3 H 7 N 1 O 2 S 1

1 2
C    1.976843  -0.010299   0.231680
N    4.721273   0.053857   0.002230
C    5.801743   2.046328   1.624786
S    8.297504  -0.011754   2.511219
O    8.579470  -0.151367   5.236507
O   10.446179   0.119128   0.815209
C    5.879600  -2.057231   1.406504
H    1.218684  -1.634915  -0.802378
H    1.156210   1.690662  -0.614841
H    1.319067  -0.133037   2.192385
H    4.670685   2.627551   3.259778
H    6.449333   3.723422   0.606224
H    6.588171  -3.591330   0.217356
H    4.774866  -2.850860   2.968627

