%chk=mol_3111.chk
# wB97XD/Def2SVP opt pop=full gfinput

C 5 H 10 O 2

1 2
C    1.866577  -4.059736  -1.396243
C    2.824668  -1.644118  -0.150044
C    5.449007  -0.970752  -1.125937
O    1.176978   0.427853  -0.782932
C   -0.955332   0.650784   0.638860
C   -2.470817   2.873952  -0.242036
O   -1.563295  -0.729642   2.388614
H   -0.008617  -4.564388  -0.685290
H    3.144561  -5.644593  -1.035305
H    1.676811  -3.809518  -3.442174
H    2.928357  -1.881581   1.906942
H    5.417882  -0.626255  -3.167200
H    6.809704  -2.475069  -0.726751
H    6.119519   0.776129  -0.239768
H   -4.256325   2.939790   0.796879
H   -2.896516   2.681748  -2.253952
H   -1.425817   4.618472   0.117371

