%chk=mol_3417.chk
# wB97XD/Def2SVP opt pop=full gfinput

C 5 H 8 O 2

1 2
C    4.564482  -0.129805   2.179913
O    6.898653   0.346632   0.923037
C    7.166711   2.834457   0.254036
C    9.431094   3.945616   0.016422
C   11.926931   2.708015   0.473830
C    9.462747   6.638173  -0.763695
O   11.423149   7.844386  -1.016899
H    4.525989  -2.122370   2.728292
H    2.962278   0.227674   0.919522
H    4.406482   1.020981   3.893346
H    5.393562   3.787408  -0.115595
H   11.731704   0.725069   1.028994
H   12.947137   3.680960   1.988729
H   13.086372   2.764046  -1.238961
H    7.603067   7.514987  -1.105887

