%chk=mol_1687.chk
# wB97XD/Def2SVP opt pop=full gfinput

C 7 H 10

1 2
C    2.311872   0.026872  -1.950519
C    3.926265   0.541029  -0.069844
C    6.299572   2.149639  -0.166258
C    7.329700   2.869625  -2.799138
C    6.539567   5.563505  -3.109318
C    5.751552   6.563605  -0.928763
C    5.871587   4.696990   1.190282
H    0.669643  -1.158251  -1.615565
H    2.535389   0.782517  -3.842078
H    3.514550  -0.269815   1.778837
H    7.758214   1.064350   0.834579
H    6.622167   1.675167  -4.327492
H    9.398912   2.764462  -2.826010
H    6.661682   6.578628  -4.878253
H    5.142115   8.499232  -0.689939
H    7.463417   5.155853   2.432550
H    4.133398   4.733027   2.312515

