%chk=mol_5106.chk
# wB97XD/Def2SVP opt pop=full gfinput

C 5 H 13 N 1 O 1

1 2
C    1.807712  -0.782328   0.066802
N    4.467653  -0.364528   0.633531
C    5.127904   2.342826   0.769194
C    4.125272   3.561831   3.186626
C    8.032621   2.618537   0.654261
O    8.929636   1.628056  -1.705005
C   11.603164   1.829141  -1.895754
H    1.473249  -2.809645  -0.184513
H    1.233349   0.170264  -1.678946
H    0.588272  -0.157339   1.615962
H    5.533572  -1.122138  -0.795216
H    4.344197   3.316016  -0.886433
H    4.794726   2.560957   4.871242
H    2.056778   3.579387   3.229410
H    4.755666   5.528318   3.328129
H    8.926953   1.593568   2.219994
H    8.557776   4.620475   0.782649
H   12.188621   1.014575  -3.702332
H   12.521194   0.780514  -0.369914
H   12.181080   3.812957  -1.847604

