%chk=mol_0877.chk
# wB97XD/Def2SVP opt pop=full gfinput

C 4 H 6 O 2

1 2
O    2.073729  -0.457200  -0.972245
C    3.913774   0.219662   0.286993
C    5.680536   2.474729  -0.305002
C    4.577408   5.148823  -0.137119
C    6.841375   5.709071   1.551900
O    7.474566   3.052002   1.711430
H    4.410658  -0.834938   2.014373
H    6.721529   2.145746  -2.069817
H    2.747926   5.285753   0.815001
H    4.522776   6.194277  -1.916863
H    8.366309   6.789748   0.668585
H    6.387747   6.505552   3.402905

