%chk=mol_6760.chk
# wB97XD/Def2SVP opt pop=full gfinput

C 6 H 13 N 1

1 2
C    2.002675   0.156715  -0.172532
C    4.819463   0.100515  -0.113686
C    6.383022  -1.275131  -2.061370
N    5.209352  -2.611545  -4.169719
C    6.473786   1.591319  -1.936913
C    5.318577   3.162249  -4.018144
C    8.844882   2.767901  -0.860506
H    1.306443   1.639659   1.089956
H    1.252416  -1.649429   0.500513
H    1.210993   0.505180  -2.045969
H    5.461006  -0.060263   1.831523
H    8.045566  -2.258393  -1.341290
H    3.593163  -1.754214  -4.762790
H    4.688713  -4.387453  -3.632998
H    3.644072   2.313724  -4.877346
H    6.699797   3.459616  -5.531398
H    4.766475   5.016429  -3.282587
H    9.652702   1.631627   0.669039
H    8.432846   4.648084  -0.101403
H   10.284230   2.959047  -2.334851

