%chk=mol_1123.chk
# wB97XD/Def2SVP opt pop=full gfinput

C 4 H 3 N 1 O 1

1 2
O    1.879125  -0.138422  -0.172305
C    4.186197  -0.060906  -0.037247
C    5.548652   2.367940  -0.080219
C    8.072645   2.406925   0.069882
C    9.441884   4.715755   0.033505
N   10.567160   6.593462   0.004611
H    5.348813  -1.782976   0.121509
H    4.396580   4.056675  -0.236632
H    9.177795   0.688484   0.224991

