%chk=mol_4228.chk
# wB97XD/Def2SVP opt pop=full gfinput

C 5 H 3 N 1 O 1

1 2
C    1.824606  -0.133037  -0.005159
C    4.087912   0.026381   0.000094
C    6.751878   0.216090   0.006368
C    8.353724   2.247130   0.005688
C   10.768396   1.133382   0.014645
N   10.661929  -1.390215   0.020201
O    8.096399  -1.967148   0.014929
H   -0.182264  -0.286520  -0.009713
H    7.859427   4.224596  -0.000189
H   12.599277   2.039600   0.017310

