%chk=mol_0470.chk
# wB97XD/Def2SVP opt pop=full gfinput

C 5 H 11 N 1

1 2
C    4.104958  -0.841079  -2.493683
N    4.378004   0.287276   0.006028
C    6.070330   2.466357  -0.142315
C    4.565144   4.851721  -0.915610
C    6.008063   6.252083   1.202168
C    6.289878   3.662327   2.518835
H    2.803295  -2.445306  -2.384324
H    5.916581  -1.539843  -3.209945
H    3.315581   0.503121  -3.854777
H    4.993223  -1.070379   1.228190
H    7.883786   2.187849  -1.103260
H    2.519024   4.778021  -0.592864
H    4.913666   5.547707  -2.829714
H    7.805212   7.076590   0.584889
H    4.929445   7.676408   2.236718
H    8.087121   3.355795   3.491496
H    4.740850   3.248723   3.833952

