%chk=mol_3941.chk
# wB97XD/Def2SVP opt pop=full gfinput

C 5 H 11 N 1 O 1

1 2
C    1.789854  -0.029650   0.079520
C    4.654358  -0.079009   0.071110
C    5.999521   1.942336   1.727304
C    8.036287  -0.083734   2.325856
O   10.242165  -0.056541   0.705832
C    5.943510  -2.085086   1.786793
N    6.916076  -4.152824   0.239995
H    1.036723  -1.615262  -1.013555
H    1.094227   1.720255  -0.773805
H    1.029806  -0.155014   1.998007
H    5.364403  -0.042878  -1.883981
H    4.929709   2.551433   3.394250
H    6.656976   3.614876   0.711992
H    8.649654  -0.065706   4.302736
H    9.605875   0.248782  -0.984094
H    4.860867  -2.674662   3.450810
H    8.395391  -3.702106  -0.908146
H    5.602376  -5.097990  -0.798731

