%chk=mol_2826.chk
# wB97XD/Def2SVP opt pop=full gfinput

C 6 H 12 O 1

1 2
C    4.462928  -2.135674  -1.934418
C    5.991509  -0.975892   0.205281
C    5.882018   1.858338   0.132281
C    7.919294   3.352318  -0.092408
C    7.798295   6.197697  -0.148249
C    8.864780   7.282324  -2.605044
O    7.248347   6.739406  -4.687541
H    4.553692  -4.200238  -1.839818
H    5.192060  -1.545834  -3.779358
H    2.472839  -1.579471  -1.820109
H    7.947942  -1.647766   0.087570
H    5.235411  -1.624994   2.021251
H    4.012531   2.703896   0.297859
H    9.791937   2.511125  -0.225463
H    8.898531   6.921292   1.450781
H    5.842939   6.838995   0.094883
H   10.750670   6.536185  -3.019858
H    9.011292   9.339461  -2.456776
H    6.969650   4.920979  -4.694855

