%chk=mol_6465.chk
# wB97XD/Def2SVP opt pop=full gfinput

C 4 H 6 N 2 S 1

1 2
C    1.803366   0.014929  -0.009146
C    4.616866   0.046714   0.001191
C    6.080420   2.217423  -0.004838
S    9.195218   1.391216   0.006520
N    8.705836  -1.691626   0.022204
C    6.236720  -2.135636   0.028535
N    5.315629  -4.494544   0.062682
H    1.025328   1.931546   0.007086
H    1.084117  -0.977385   1.657233
H    1.099121  -0.942917  -1.702454
H    5.490542   4.171476  -0.014211
H    3.462148  -4.933338  -0.100704
H    6.537810  -5.964901  -0.048264

