%chk=mol_6262.chk
# wB97XD/Def2SVP opt pop=full gfinput

C 4 H 8 N 2 O 1

1 2
O    1.174616   0.057788  -1.361321
C    3.509580  -0.811864  -0.350941
C    5.408018   1.368199  -0.230055
N    4.572230   3.681545  -0.210289
N    7.958487   0.967710  -0.126139
C    9.353483  -1.203264  -0.033769
C   11.871524  -1.354140   0.058185
H    1.523988   0.570036  -3.096071
H    4.215507  -2.345774  -1.539144
H    3.182223  -1.516108   1.564089
H    2.620899   3.602668  -0.243548
H    8.957888   2.605932  -0.058317
H    8.252131  -2.937655  -0.031861
H   13.056798   0.318948   0.063929
H   12.808734  -3.177650   0.128275

