%chk=mol_6814.chk
# wB97XD/Def2SVP opt pop=full gfinput

C 5 H 8 N 2

1 2
C    1.760582   0.088326  -0.012170
C    4.565276   0.009165  -0.000094
C    6.181483   2.065811   0.002060
N    8.620628   1.190716   0.016762
C    8.607589  -1.398378   0.023130
C    6.134523  -2.159598   0.014041
N    5.381921  -4.570208   0.019200
H    1.063047   2.035405   0.003250
H    1.003029  -0.876039   1.652169
H    1.020282  -0.843045  -1.704552
H    5.799645   4.073097  -0.004365
H   10.186776   2.285832   0.022922
H   10.355907  -2.450861   0.035754
H    3.536849  -5.076844  -0.057240
H    6.618652  -6.032251  -0.038891

