%chk=mol_5950.chk
# wB97XD/Def2SVP opt pop=full gfinput

C 4 H 7 N 1 O 2

1 2
O    1.546816   0.599459  -0.926249
C    3.991215  -0.081731   0.023225
C    5.532324  -1.737017  -1.681611
C    6.213873   1.003331  -1.389346
N    8.457753   1.733578  -0.094260
C    8.824152   4.072851   0.932844
O   10.768038   4.693494   2.018832
H    0.751109   1.873815   0.133963
H    4.179583  -0.403230   2.040791
H    4.690319  -2.332583  -3.451887
H    6.721472  -3.154784  -0.806138
H    5.797510   2.205858  -3.004343
H    9.934574   0.520431   0.051552
H    7.198401   5.351232   0.695967

