%chk=mol_0490.chk
# wB97XD/Def2SVP opt pop=full gfinput

C 4 H 8 N 2

1 2
C    1.900290   0.105844   0.012264
N    4.676448   0.002324  -0.112269
C    5.867694  -2.342656  -0.199366
C    4.860527  -4.662824  -0.211347
C    5.952713   2.293712  -0.089479
N    8.327834   2.806602  -0.216071
H    1.172178   2.043607  -0.015590
H    1.226583  -0.781553   1.757370
H    1.066070  -0.875000  -1.609442
H    7.916138  -2.221354  -0.258363
H    2.842583  -4.995397  -0.151991
H    6.076679  -6.315068  -0.281664
H    4.664335   3.926832   0.063722
H    9.364330   1.191170  -0.364509

