%chk=mol_0474.chk
# wB97XD/Def2SVP opt pop=full gfinput

C 5 H 11 N 1

1 2
C    2.103227   0.184456  -1.047059
N    4.847979   0.017971  -0.967408
C    5.901803   1.924781   0.721856
C    8.713659   1.602696   0.706228
C   10.326200   2.917643  -1.243194
C   10.409537   3.760668   1.469848
H    1.359431  -1.285524  -2.297548
H    1.474440   2.016773  -1.774453
H    1.278740  -0.118713   0.826472
H    5.555077   0.295024  -2.737382
H    5.208992   1.650562   2.653723
H    5.370847   3.830210   0.104313
H    9.272413  -0.275919   1.311886
H    9.419377   4.153845  -2.601019
H   11.941897   1.899628  -1.984553
H   12.085101   3.314995   2.562015
H    9.558613   5.562692   1.942544

