%chk=mol_6717.chk
# wB97XD/Def2SVP opt pop=full gfinput

C 3 H 6 O 3 S 1

1 2
O    6.864638  -1.598255  -1.062876
S    4.919165   0.338639   0.259006
O    2.872724   0.809899  -1.480393
O    4.539538  -0.571774   2.801292
C    7.004950   3.034220   0.403646
C    7.126271   4.600841  -1.966978
C    5.687055   5.553017   0.295856
H    6.621619  -3.262102  -0.283270
H    8.679550   2.844888   1.552693
H    6.052736   4.016840  -3.613043
H    8.907583   5.502996  -2.423347
H    6.495707   7.099833   1.367803
H    3.641351   5.614074   0.170869

