%chk=mol_2864.chk
# wB97XD/Def2SVP opt pop=full gfinput

C 6 H 8 O 1

1 2
C    1.794030   0.010753   0.052383
C    4.667624   0.018878   0.052308
C    5.720938   2.707637   0.000000
C    8.449702   2.707637   0.000000
C   10.698779   2.707637   0.000000
C   13.423820   2.706163  -0.000057
O   14.617032   4.684763  -0.000189
H    1.083437  -1.931300   0.090178
H    1.049989   0.933544  -1.642947
H    1.049894   0.998815   1.710505
H    5.350023  -1.044678  -1.591376
H    5.349947  -0.979917   1.736148
H    5.018565   3.758250   1.641964
H    5.018565   3.693602  -1.681592
H   14.324427   0.829080   0.000019

