%chk=mol_5622.chk
# wB97XD/Def2SVP opt pop=full gfinput

C 4 H 8 N 2 O 1

1 2
N    5.951352  -2.021062  -0.930463
C    4.609704   0.085907   0.260518
C    6.022652   2.598657   0.027609
C    6.358607   3.482576  -2.666007
C    6.037410   6.220770  -2.224926
N    5.043755   6.841905  -0.090178
O    4.577257   4.560987   1.229702
H    4.881938  -3.617446  -0.756590
H    7.576763  -2.379543   0.043634
H    4.286995  -0.343590   2.261605
H    2.727876   0.261463  -0.589878
H    7.851132   2.490111   1.000459
H    4.879273   2.845587  -3.961263
H    8.216719   3.039832  -3.445292
H    6.547561   7.600705  -3.689936

