%chk=mol_4804.chk
# wB97XD/Def2SVP opt pop=full gfinput

C 4 H 9 N 1 O 2

1 2
C    5.194460  -1.020018   2.933497
C    5.114638  -0.438020   0.120659
N    5.734733   2.189493  -0.422014
O    3.722874   3.841530   0.221570
C    8.077993   3.316167  -0.469994
C   10.316695   1.616793  -0.898621
O    8.318065   5.617381  -0.183851
H    4.746368  -3.011411   3.265692
H    3.820611   0.129919   3.968425
H    7.064439  -0.634457   3.727976
H    3.226065  -0.819158  -0.636309
H    6.457213  -1.662260  -0.864965
H    4.599688   5.469075   0.389832
H    9.948161   0.302904  -2.447989
H   10.750142   0.581015   0.833275
H   11.953387   2.767901  -1.419543

