%chk=mol_4537.chk
# wB97XD/Def2SVP opt pop=full gfinput

C 4 H 7 N 1 O 2

1 2
C    1.786528  -0.169187   0.086814
C    4.628242  -0.318853   0.090348
C    5.770543  -2.579967   0.266848
N    5.980813   1.908567  -0.090726
O    8.653283   1.673504  -0.081995
C    5.120478   4.357557  -0.281758
O    6.517269   6.208695  -0.433598
H    1.113672   0.959225   1.685730
H    0.908467  -2.037673   0.244115
H    1.104016   0.681964  -1.671690
H    4.698766  -4.322692   0.408445
H    7.814188  -2.769734   0.276013
H    9.185468   3.442306  -0.225633
H    3.052153   4.540842  -0.288788

