%chk=mol_3869.chk
# wB97XD/Def2SVP opt pop=full gfinput

C 4 H 3 N 1 O 2

1 2
C    3.855438   0.102896   0.997038
O    2.868699   1.104923  -1.366971
C    4.744006   2.819131  -1.432469
C    4.804591   5.377254  -1.544775
O    6.049032   6.182428   0.596983
N    6.465282   4.095641   2.217972
C    5.783450   2.109879   0.835259
H    4.553824  -1.828121   0.757421
H    2.542929   0.213218   2.588811
H    3.930423   6.841451  -2.660186

