%chk=mol_7102.chk
# wB97XD/Def2SVP opt pop=full gfinput

C 6 H 13 N 1

1 2
C    4.702961  -2.434761  -3.038415
C    4.586233  -1.236108  -0.464646
C    3.097866  -2.170256   1.364118
C    6.171373   1.108740  -0.054878
C    9.031247   0.690978  -0.264222
C   10.040720  -1.183800   1.686977
N   12.782580  -1.410775   1.457376
H    4.254038  -1.043223  -4.501290
H    3.358062  -3.996185  -3.226216
H    6.592196  -3.193392  -3.404493
H    1.939898  -3.838582   1.063972
H    2.986750  -1.291571   3.217164
H    5.758109   1.940749   1.800342
H    5.602244   2.533329  -1.450818
H    9.969137   2.523106  -0.005140
H    9.513561   0.055086  -2.177437
H    9.193196  -3.052871   1.422586
H    9.576867  -0.541123   3.599116
H   13.226042  -2.072500  -0.296517
H   13.412255  -2.737627   2.704141

