%chk=mol_3474.chk
# wB97XD/Def2SVP opt pop=full gfinput

C 5 H 6 O 2

1 2
C    2.063902  -0.126158   0.806535
O    4.757461  -0.054897   0.764602
C    5.715930   2.204063   0.010280
O    4.508717   4.071491  -0.602936
C    8.442351   2.207710   0.000000
C   10.691428   2.207710   0.000000
C   13.420193   2.207710   0.000000
H    1.481678  -2.012502   1.418750
H    1.296598   0.211801  -1.084419
H    1.322147   1.255591   2.155932
H   14.164877   4.136837  -0.021826
H   14.164858   1.224202  -1.659746
H   14.164839   1.262035   1.681611

