%chk=mol_1982.chk
# wB97XD/Def2SVP opt pop=full gfinput

C 5 H 12 N 2

1 2
N    4.053935  -0.595453  -2.742200
C    4.418879   0.190069  -0.115103
C    5.818240   2.730692   0.098870
C    4.344273   4.957734  -0.976346
C    5.412251   7.246646   0.403740
C    6.910388   6.176249   2.613661
N    6.217803   3.505404   2.736985
H    3.137985  -2.287891  -2.766389
H    5.767142  -0.897733  -3.566102
H    5.489919  -1.280781   0.874414
H    2.565776   0.316208   0.802661
H    7.662008   2.587356  -0.846956
H    2.319129   4.789681  -0.568505
H    4.566882   5.130815  -3.025130
H    6.642633   8.354706  -0.840626
H    3.879268   8.481525   1.046682
H    8.941580   6.372648   2.259829
H    6.470498   7.145432   4.385166
H    7.626255   2.474577   3.548225

