%chk=mol_5528.chk
# wB97XD/Def2SVP opt pop=full gfinput

C 4 H 6 N 2 O 1

1 2
N    1.864442  -0.142183   0.254905
C    4.382842   0.142580   0.144262
C    5.930830   2.226381  -0.061454
N    5.195802   4.664335  -0.147701
C    8.432940   1.318141  -0.151972
C    8.249826  -1.273146   0.020711
O    5.789327  -2.001636   0.201558
H    0.789509   1.234823  -0.529747
H    1.205248  -1.907868  -0.096300
H    6.469761   6.067760   0.146416
H    3.433802   5.121309   0.462359
H   10.159791   2.391354  -0.315773
H    9.616230  -2.790048   0.039098

