%chk=mol_4685.chk
# wB97XD/Def2SVP opt pop=full gfinput

C 5 H 13 N 1 O 1

1 2
C    3.041590  -1.763058  -0.034091
C    5.824514  -1.034663   0.239239
N    7.352149  -2.520479  -1.539087
C    6.181597   1.819315  -0.215901
C    8.904994   2.800196   0.040610
C   10.037469   2.396078   2.652892
O   10.507936   1.647539  -1.789495
H    1.883055  -0.742549   1.344483
H    2.765879  -3.788712   0.294854
H    2.320414  -1.318783  -1.923892
H    6.427922  -1.506452   2.162206
H    6.694525  -2.230236  -3.333798
H    7.064004  -4.400624  -1.200505
H    4.974194   2.867678   1.106019
H    5.510668   2.273567  -2.126849
H    8.902934   4.830575  -0.364660
H   10.351372   0.390682   3.048922
H    8.829651   3.195602   4.129448
H   11.894485   3.304867   2.766880
H   10.071163  -0.159795  -1.778931

