%chk=mol_2769.chk
# wB97XD/Def2SVP opt pop=full gfinput

C 6 H 10 O 1

1 2
C    1.294481   2.187320   2.032155
C    4.119433   2.154269   2.047046
C    5.547801   2.824252   0.060981
C    8.380520   2.791220   0.051117
C    9.367297   5.441051  -0.432653
C    9.918133   7.051475   1.848587
O    9.614662   6.279107  -2.591948
H    0.566578   0.280435   2.363783
H    0.528897   2.867886   0.235120
H    0.597607   3.421652   3.537605
H    5.006433   1.532454   3.794400
H    4.646629   3.429966  -1.689245
H    9.069986   1.550483  -1.455467
H    9.170841   2.083688   1.828499
H    8.183610   7.349863   2.927998
H   10.654861   8.884907   1.242778
H   11.340738   6.124206   3.023845

