%chk=mol_3269.chk
# wB97XD/Def2SVP opt pop=full gfinput

C 5 H 12 O 2

1 2
C    1.748866   4.423962   3.252899
C    4.603411   4.305552   3.038718
O    5.226302   3.306076   0.616259
C    7.884599   3.144712   0.253507
O    9.072310   5.554888   0.131960
C    8.295652   6.946709  -2.040526
C    9.702081   9.442338  -2.058857
H    1.178093   5.199241   5.081266
H    0.923793   2.538998   3.038547
H    0.955521   5.603435   1.749395
H    5.370111   3.081217   4.522285
H    5.392466   6.207165   3.251671
H    8.246860   2.097312  -1.495454
H    8.742232   2.067606   1.799624
H    6.257583   7.301618  -1.965447
H    8.737244   5.878976  -3.758268
H    9.314933  10.509561  -0.329341
H    9.149921  10.587134  -3.687971
H   11.745612   9.125318  -2.126622

