%chk=mol_6335.chk
# wB97XD/Def2SVP opt pop=full gfinput

C 4 H 6 N 2 O 1

1 2
O    2.013635   0.413718   0.885752
N    4.451042   0.045524  -0.093617
C    5.599013   2.195106  -0.286426
C    8.290021   2.398157  -1.323148
C    8.609044   5.249281  -1.221840
C    6.535164   6.357662  -0.281966
N    4.780780   4.580262   0.300353
H    1.354046  -1.307029   0.929046
H    8.382315   1.674543  -3.253825
H    9.623695   1.423625  -0.085567
H   10.290012   6.224758  -1.842899
H    6.173263   8.345786   0.015004
H    3.016003   4.938100   0.923717

