%chk=mol_5735.chk
# wB97XD/Def2SVP opt pop=full gfinput

C 4 H 8 N 2 O 1

1 2
N    5.362627  -1.040351   2.388123
C    4.508603   0.161061   0.055917
C    5.347396   2.896100  -0.105636
C    3.654485   4.784995  -0.172815
N    7.878835   3.504856  -0.212878
C    9.911613   1.906639  -0.202787
O   12.093340   2.679518  -0.316208
H    4.613540  -2.810344   2.496045
H    4.645816  -0.065082   3.887337
H    2.442660   0.022677  -0.036339
H    5.240362  -0.886811  -1.573726
H    1.637126   4.416309  -0.101573
H    4.218020   6.753428  -0.297594
H    8.383392   5.349040  -0.295402
H    9.463408  -0.119639  -0.125610

