%chk=mol_0946.chk
# wB97XD/Def2SVP opt pop=full gfinput

C 4 H 9 N 1 O 1

1 2
C    1.563484   0.340755  -0.615163
C    4.216244  -0.130920   0.250313
C    4.775243   0.171209   3.016381
N    3.911658  -2.062277   4.385317
C    5.961179  -1.714700  -1.365081
O    6.085183   0.993675  -1.372073
H    1.404652   0.265922  -2.677081
H    0.921223   2.208050  -0.000643
H    0.281210  -1.079242   0.167411
H    3.848484   1.862646   3.765015
H    6.809893   0.395557   3.331814
H    1.989919  -2.149299   4.316115
H    4.363453  -1.861135   6.245942
H    5.204797  -2.639343  -3.025905
H    7.480632  -2.738875  -0.447053

