%chk=mol_6707.chk
# wB97XD/Def2SVP opt pop=full gfinput

C 3 H 4 O 3 S 1

1 2
O    1.829841  -0.062304   0.482749
S    4.553768   0.113062   0.258004
O    6.180387   0.467348   2.433249
C    5.711603  -2.503207  -1.617152
C    6.550849  -1.278759  -4.030294
C    6.259718   1.219516  -4.038628
O    5.248884   2.255275  -1.882848
H    4.168717  -3.837713  -1.924799
H    7.288579  -3.389110  -0.624536
H    7.314809  -2.342864  -5.599202
H    6.706071   2.554702  -5.509515

