%chk=mol_5770.chk
# wB97XD/Def2SVP opt pop=full gfinput

C 4 H 10 N 2 O 1

1 2
N    1.988030  -0.049379  -1.063651
C    4.713109  -0.189521  -0.517898
C    5.793012   2.398629   0.348390
N    4.169737   3.500869   2.321566
C    8.503295   2.143176   1.152261
C    9.648658   3.550342   3.353035
O    8.901952   0.948321   3.557390
H    1.383998  -1.775549  -1.668326
H    1.700565   1.166207  -2.533065
H    5.722507  -0.847070  -2.201984
H    5.000820  -1.609518   0.963912
H    5.733882   3.695908  -1.267742
H    4.387415   2.409155   3.900792
H    2.349478   3.118029   1.769558
H    9.737135   1.607684  -0.392156
H    8.527786   4.946849   4.344953
H   11.653903   3.955140   3.308684

