%chk=mol_0444.chk
# wB97XD/Def2SVP opt pop=full gfinput

C 4 H 10 N 2

1 2
C    2.947557  -0.421749  -0.203542
C    5.791803  -0.132583   0.031010
N    6.422650   2.550375  -0.227712
C    8.803440   2.988961  -0.073680
N    9.927714   5.305066  -0.258949
C    8.466275   7.610683  -0.187499
H    2.402900  -2.407719  -0.010167
H    2.283659   0.258080  -2.043417
H    1.969132   0.666695   1.260485
H    6.715463  -1.245878  -1.451688
H    6.400672  -0.848430   1.876271
H   10.206789   1.469905   0.225860
H   11.714205   5.449309   0.413642
H    6.970803   7.591351  -1.616188
H    9.696109   9.226002  -0.577425
H    7.617089   7.877078   1.678625

