%chk=mol_4973.chk
# wB97XD/Def2SVP opt pop=full gfinput

C 5 H 7 N 1 O 1

1 2
C    1.882092   0.011867  -0.015250
N    4.611933  -0.005121  -0.000680
C    6.131197   2.094081   0.006520
C    8.610613   1.288472   0.020352
C    8.548120  -1.366385   0.021184
O   10.545541  -2.918644   0.032692
C    6.075621  -2.147107   0.008126
H    1.200959   1.961592   0.003987
H    1.216851  -0.983300   1.667683
H    1.236108  -0.944013  -1.728192
H    5.344656   3.981539   0.001285
H   10.269377   2.481683   0.028781
H    9.979587  -4.665035   0.030406
H    5.228835  -4.006106   0.004290

