%chk=mol_1767.chk
# wB97XD/Def2SVP opt pop=full gfinput

C 5 H 10 N 2

1 2
C    1.374662   1.789684  -0.817344
N    4.081336   1.916144  -0.368327
C    5.292461  -0.407538   0.482409
C    6.090625  -1.892258  -1.795599
C    5.303252  -4.235576  -2.344432
C    5.411382   4.131471  -0.475946
N    4.603203   6.368774  -0.971546
H    0.864021   2.814048  -2.541587
H    0.350525   2.619765   0.777547
H    0.717170  -0.159096  -1.055110
H    4.003819  -1.497400   1.685881
H    6.959049   0.004951   1.642758
H    7.417591  -0.967634  -3.064739
H    3.983751  -5.245955  -1.142169
H    5.972215  -5.193874  -4.031636
H    7.443990   3.893611  -0.072679
H    2.706182   6.324762  -1.303382

