%chk=mol_4573.chk
# wB97XD/Def2SVP opt pop=full gfinput

C 5 H 7 N 1 O 1

1 2
C    1.884038  -1.097440  -0.121642
C    4.426513   0.222837   0.050097
C    4.185366   3.074282  -0.216563
O    2.193065   4.191110   0.238087
C    6.481799   4.508112  -1.109874
C    8.601693   4.152938   0.619093
N   10.300349   3.831571   1.966487
H    2.126188  -3.147622   0.001606
H    0.945600  -0.661839  -1.914368
H    0.626841  -0.503612   1.410662
H    5.648221  -0.481559  -1.464292
H    5.320467  -0.193111   1.868693
H    5.997953   6.515473  -1.246822
H    6.951906   3.856534  -3.016456

