%chk=mol_2408.chk
# wB97XD/Def2SVP opt pop=full gfinput

C 6 H 8 O 1

1 2
C    1.743386  -0.082827  -0.008466
C    4.569584   0.021070   0.012982
C    5.868223   2.198224   0.047772
C    8.707820   2.275381   0.068881
O    9.983159  -0.123928   0.013568
C    8.519188  -2.252705  -0.006463
C    5.992473  -2.301989  -0.005027
H    1.034474  -2.026788  -0.054670
H    0.994695   0.890382  -1.674808
H    0.971962   0.820406   1.686486
H    4.887493   3.999530   0.064062
H    9.369225   3.356532  -1.567698
H    9.346169   3.268300   1.769483
H    9.679990  -3.935827  -0.027155
H    4.997211  -4.094243  -0.021656

