%chk=mol_4947.chk
# wB97XD/Def2SVP opt pop=full gfinput

C 4 H 10 N 2 O 1

1 2
C    1.760034   1.778572   1.601637
C    4.597212   1.510175   1.324793
O    5.625696   3.913661   0.673498
N    8.265813   3.690352   0.559075
C    9.214059   5.858151  -0.022677
N   11.722576   6.420590  -0.300126
C   13.620938   4.465026  -0.427210
H    0.891346  -0.032541   2.089338
H    0.916820   2.472726  -0.156375
H    1.299584   3.157411   3.075000
H    5.040145   0.146416  -0.168242
H    5.422078   0.858181   3.108486
H    8.002518   7.528763  -0.351206
H   12.130152   8.024836  -1.264378
H   13.473520   3.175590   1.183044
H   15.503615   5.318143  -0.386695
H   13.435405   3.382855  -2.179175

