%chk=mol_1670.chk
# wB97XD/Def2SVP opt pop=full gfinput

C 6 H 11 N 1

1 2
C    3.660286  -1.449344  -0.416496
N    3.461884   1.294803  -0.297859
C    5.916449   2.501563   0.179467
C    7.274765   3.750728  -1.973517
C    6.103267   5.351005   0.064270
C    7.710593   6.623301   1.931187
C    9.690157   8.119360   1.434642
H    1.814477  -2.260642  -0.871391
H    4.274258  -2.231615   1.398341
H    4.991277  -2.042208  -1.885852
H    2.205008   1.772469   1.082756
H    7.089761   1.565260   1.588957
H    6.376370   3.764164  -3.814167
H    9.311814   3.561378  -2.050599
H    4.408315   6.392358  -0.433314
H    7.198590   6.330942   3.904363
H   10.281150   8.492637  -0.494182
H   10.759477   8.990410   2.948218

