%chk=mol_6328.chk
# wB97XD/Def2SVP opt pop=full gfinput

C 4 H 6 N 2 O 1

1 2
O    2.241782   0.195435  -0.889305
N    4.394615  -0.046317   0.608908
C    5.723716   2.207446   0.755683
N    8.087726   2.275854   0.054575
C    8.718384  -0.253261  -0.805704
C    8.609327  -2.482571   0.948926
C    6.287818  -1.780349  -0.515933
H    1.079053  -0.987703  -0.091671
H    4.634459   3.852698   1.410681
H    9.934574  -0.414795  -2.439788
H    9.612905  -4.176711   0.389662
H    8.657194  -2.117740   2.962051
H    5.665097  -2.927091  -2.087562

