%chk=mol_2500.chk
# wB97XD/Def2SVP opt pop=full gfinput

C 5 H 10 O 2

1 2
C    1.874155   0.000548   0.077895
C    4.767363  -0.009883  -0.048377
C    5.731521  -2.512712  -1.117452
O    5.085631  -2.753312  -3.717394
C    6.059369  -0.694644  -5.144836
O    5.075351   1.663375  -4.314490
C    5.720088   2.125035  -1.743348
H    1.188449   1.788342   0.861507
H    1.195516  -1.524499   1.300283
H    1.013101  -0.248178  -1.786150
H    5.498139   0.251334   1.872964
H    4.906485  -4.115067  -0.100118
H    7.789375  -2.654839  -0.918161
H    8.131869  -0.683117  -5.092906
H    5.481718  -0.962097  -7.112891
H    7.777413   2.324363  -1.590280
H    4.887002   3.935374  -1.187466

