%chk=mol_6031.chk
# wB97XD/Def2SVP opt pop=full gfinput

C 4 H 8 N 2 O 1

1 2
O    1.933889   0.332667   0.086890
C    4.656814   0.186403   0.217054
C    5.946911   1.723865   2.306089
N    7.150421  -0.545923   3.196566
C    5.801781  -2.156801   1.475952
C    9.733809  -0.626765   3.138911
N   11.285105   1.050952   3.976588
H    1.445811  -0.902061  -1.184480
H    5.473459   0.564064  -1.652225
H    4.676071   2.507704   3.736140
H    7.223440   3.198796   1.623709
H    6.977304  -3.320343   0.235328
H    4.453480  -3.361313   2.480152
H   10.509315  -2.388519   2.332924
H   10.269320   2.500467   4.760277

