%chk=mol_2170.chk
# wB97XD/Def2SVP opt pop=full gfinput

C 6 H 10 O 1

1 2
C   -3.258644   1.614847   1.068262
C   -2.254557  -0.534963  -0.499757
C   -0.610873  -2.575168   0.571245
C    2.019456  -2.328199  -0.607131
O    3.209624   0.085869  -0.289601
C    1.629719   2.107196   0.570017
C   -0.959433   1.993888  -0.572946
H   -5.011081   2.494741   0.471430
H   -3.027870   1.535346   3.102420
H   -3.281736  -1.119115  -2.171012
H   -0.482012  -2.394604   2.630952
H   -1.413383  -4.435792   0.153635
H    3.289730  -3.757758   0.181735
H    1.910608  -2.673944  -2.647128
H    1.553997   2.023878   2.638474
H    2.555628   3.887563   0.068843
H   -1.115902   3.088984  -2.293315

