%chk=mol_3358.chk
# wB97XD/Def2SVP opt pop=full gfinput

C 5 H 8 O 2

1 2
C    3.389262   0.287862  -2.464997
O    5.810360   0.629109  -1.348376
C    6.394228   2.961087  -0.318967
C    4.820729   4.960002  -0.324466
C    8.929788   3.112114   0.846786
C   11.187122   3.360840  -0.878553
O   10.468611   5.354823   0.801792
H    3.271513  -1.662335  -3.141348
H    3.141670   1.540486  -4.092485
H    1.883925   0.567390  -1.073572
H    2.951525   4.939498  -1.150749
H    5.417164   6.733018   0.523757
H    9.136883   1.900743   2.488410
H   10.883179   3.662327  -2.879243
H   12.869470   2.292087  -0.421258

