%chk=mol_1253.chk
# wB97XD/Def2SVP opt pop=full gfinput

C 6 H 13 N 1

1 2
C    2.047953   0.170227  -0.145358
C    4.868331   0.411393   0.372484
C    5.754122   3.162457   0.755966
C    4.512383   4.370124   3.078156
N    8.515559   3.130672   1.143889
C    9.968533   3.295229  -1.200165
C    9.763288   5.522536   0.556487
H    1.577241  -1.793841  -0.594942
H    1.482566   1.347016  -1.749792
H    0.922772   0.714921   1.500613
H    5.882982  -0.422486  -1.233009
H    5.342483  -0.735103   2.034952
H    5.216136   4.273238  -0.914136
H    4.850757   3.252861   4.787678
H    2.467945   4.545585   2.821153
H    5.238283   6.280146   3.409576
H    8.967279   3.364752  -2.984066
H   11.727867   2.251136  -1.228398
H   11.382595   5.981191   1.722561
H    8.618077   7.118901  -0.012907

