%chk=mol_5041.chk
# wB97XD/Def2SVP opt pop=full gfinput

C 4 H 6 N 2 O 1

1 2
C    6.031760  -2.075278   0.768268
N    4.895940   0.058865  -0.494636
C    5.966546   2.351424  -0.300561
N    4.859223   4.553409  -0.594886
C    6.769245   6.264801  -0.217829
C    8.976993   5.014861   0.305909
O    8.483094   2.490659   0.263258
H    4.929899  -3.779641   0.367722
H    6.057215  -1.800399   2.819056
H    7.962380  -2.412330   0.103368
H    2.979947   0.093844  -0.486945
H    6.451544   8.278115  -0.344044
H   10.897900   5.565168   0.714713

