%chk=mol_7053.chk
# wB97XD/Def2SVP opt pop=full gfinput

C 7 H 12

1 2
C    1.398662   2.042586  -0.758158
C   -0.936378   0.556562  -0.110511
C    1.598746  -0.721705  -0.126083
C    2.962599  -1.699582   2.182275
C    2.617044  -0.457295   4.820673
C    2.980892  -3.111453   5.967963
C    2.026391  -4.183287   3.433821
H    1.673201   2.600169  -2.709584
H    2.071329   3.411277   0.607698
H   -2.241196   0.112080  -1.627130
H   -1.852461   0.942028   1.678719
H    1.973951  -2.007588  -1.682385
H    4.986382  -1.831277   1.701472
H    0.742398   0.337203   5.182309
H    4.045639   0.939232   5.344694
H    4.956336  -3.578782   6.382040
H    1.823038  -3.544295   7.622097
H    2.953264  -5.915221   2.793828
H   -0.026267  -4.451968   3.361142

