%chk=mol_2472.chk
# wB97XD/Def2SVP opt pop=full gfinput

C 6 H 8 O 1

1 2
C    1.965466   0.002287   0.082524
C    4.495450  -0.044465   0.098190
C    6.219353   2.195068   0.117654
O    8.586065   1.403670  -0.973814
C    8.585026  -1.218458  -0.973833
C   10.621036  -2.516227  -1.711960
C    6.122278  -2.323380  -0.146907
H    0.869557  -1.728873  -0.028762
H    0.930596   1.771599   0.175877
H    6.589664   2.826690   2.053811
H    5.477749   3.773008  -0.994015
H   10.632260  -4.564860  -1.739380
H   12.320277  -1.535403  -2.305749
H    5.378690  -3.654900  -1.543679
H    6.335912  -3.258738   1.686259

