%chk=mol_4891.chk
# wB97XD/Def2SVP opt pop=full gfinput

C 5 H 13 N 1 O 1

1 2
C    2.357811  -1.467297   0.296593
C    5.138694  -1.404728  -0.428136
O    5.324360  -1.214206  -3.117254
C    6.517722   0.859636   0.790850
N    9.152265   1.113653  -0.129314
C   10.176931   3.567822   0.653089
C   10.771968  -0.910961   0.848052
H    2.123032  -1.644364   2.342429
H    1.410964  -3.063643  -0.618299
H    1.384583   0.244417  -0.340264
H    6.012750  -3.192881   0.136873
H    7.012698  -0.519278  -3.420064
H    6.447689   0.725371   2.858740
H    5.484155   2.574355   0.244153
H    9.061954   5.114733  -0.156356
H   12.110650   3.809782  -0.048698
H   10.197775   3.784838   2.713741
H   10.192182  -2.754862   0.114404
H   10.760441  -0.991142   2.918247
H   12.730064  -0.640976   0.223403

