%chk=mol_2678.chk
# wB97XD/Def2SVP opt pop=full gfinput

C 5 H 10 O 2

1 2
C    3.780756  -0.489515  -2.564831
C    4.821145   0.428628  -0.048698
C    6.483424   2.767353  -0.325675
O    5.035043   4.833504  -1.314928
C    5.786474   6.946898   0.176066
C    6.320491   5.784074   2.713760
O    7.508222   3.443232   2.093930
H    2.642253  -2.193122  -2.286587
H    5.314760  -0.949871  -3.872937
H    2.578512   0.941499  -3.448259
H    5.902238  -1.089295   0.859769
H    3.231621   0.850490   1.216171
H    8.066220   2.392242  -1.606418
H    7.494257   7.757949  -0.666412
H    4.298674   8.377515   0.225803
H    7.551818   6.937865   3.904420
H    4.572665   5.362703   3.740203

