%chk=mol_0646.chk
# wB97XD/Def2SVP opt pop=full gfinput

C 4 H 6 O 2

1 2
C    1.848001   0.140917  -0.299068
C    4.562630   0.580694   0.274521
O    6.249022  -1.246501  -0.793798
C    6.402921   1.284598  -1.779631
C    8.756405   2.627437  -1.142623
O    8.869354   4.936097  -1.241966
H    0.786391   1.904750  -0.103803
H    1.055223  -1.238697   1.021907
H    1.564145  -0.571945  -2.220901
H    4.896224   1.215510   2.188945
H    5.679553   1.617492  -3.664028
H   10.391774   1.457508  -0.596946

