%chk=mol_0114.chk
# wB97XD/Def2SVP opt pop=full gfinput

C 3 H 5 N 1 O 1

1 2
O    1.963747   0.010620   0.399072
C    4.241471  -0.010904   0.151537
C    6.322362   2.007021   0.008693
N    7.999135  -0.016554  -0.937833
C    6.266370  -2.064866  -0.153843
H    6.864223   2.770017   1.849569
H    5.962029   3.534563  -1.330386
H    8.250091   0.055331  -2.853864
H    5.868696  -3.470898  -1.607155
H    6.787726  -2.985522   1.622500

