%chk=mol_1953.chk
# wB97XD/Def2SVP opt pop=full gfinput

C 5 H 8 N 2

1 2
N    1.841387   0.153862   0.121850
C    4.601275   0.033921  -0.135059
C    5.870245   1.889651   1.722183
N    7.699916  -0.142863   2.381565
C    5.747470  -2.033138   1.613184
C    6.912902  -4.158172   0.348579
C    7.876813  -5.931907  -0.690374
H    0.935339  -1.328666  -0.711709
H    1.065484   1.744406  -0.637405
H    5.319579   0.107147  -2.075713
H    4.727376   2.494854   3.343058
H    6.724874   3.564836   0.862736
H    9.250701  -0.169187   1.237430
H    4.544394  -2.598468   3.207772
H    8.731726  -7.512757  -1.598859

