%chk=mol_6755.chk
# wB97XD/Def2SVP opt pop=full gfinput

C 6 H 11 N 1

1 2
C    1.867352   0.020636  -0.005858
C    4.734879  -0.000265   0.065252
C    5.879656  -2.030700   1.773073
N    7.450208  -0.480085   3.526172
C    8.617321   1.516732   1.785980
C    5.822171   2.300817   1.394731
C    5.679931   1.687015   4.256514
H    1.154075  -1.695028  -0.911982
H    1.182817   1.652641  -1.080356
H    1.030581   0.133641   1.883093
H    5.473818  -0.147739  -1.867106
H    7.066083  -3.349823   0.707457
H    4.464818  -3.120354   2.820530
H    9.641950   0.781288   0.143468
H    9.838444   2.890695   2.746925
H    5.404428   4.201900   0.731929
H    6.512960   3.086395   5.541017
H    3.850619   1.116601   5.036479

