%chk=mol_3833.chk
# wB97XD/Def2SVP opt pop=full gfinput

C 5 H 9 N 1 O 1

1 2
C    1.119058   1.898362  -0.888587
N   -0.947622   0.577614   0.373656
C    1.446926  -0.763166   0.049794
C    3.053136  -1.468223   2.297170
C    2.563470  -0.365133   4.939215
C    2.634732  -3.099113   5.826385
O    2.689685  -4.027063   3.258133
H    0.915346   2.212586  -2.898443
H    1.978675   3.425866   0.166523
H   -2.251155  -0.074417  -0.893028
H    1.489784  -2.277460  -1.329328
H    5.047100  -1.259143   1.743650
H    0.737787   0.557979   5.223940
H    4.070016   0.840078   5.676019
H    4.338037  -3.653219   6.859158
H    0.954179  -3.745003   6.839334

