%chk=mol_2424.chk
# wB97XD/Def2SVP opt pop=full gfinput

C 5 H 10 O 2

1 2
C    1.865764  -0.002797   0.102045
C    4.741852   0.041385   0.052478
C    5.713549   0.155109  -2.670013
C    5.834851   2.135750   1.677945
O    8.297391   1.227850   2.305863
C    7.991255  -1.452916   2.448065
O    5.699886  -2.203232   1.222785
H    1.162956  -0.225407   2.037899
H    1.135839  -1.619117  -0.967956
H    1.063084   1.730819  -0.692830
H    7.783801   0.114499  -2.747152
H    5.062557   1.867711  -3.633906
H    5.061953  -1.490729  -3.746873
H    4.788925   2.380828   3.450394
H    5.964335   3.964041   0.721025
H    9.602360  -2.375575   1.539484
H    7.910072  -2.030133   4.432976

