%chk=mol_6832.chk
# wB97XD/Def2SVP opt pop=full gfinput

C 6 H 9 N 1

1 2
C    2.296471  -0.260064   0.385807
C    5.077373  -0.138177  -0.031162
N    6.151304  -0.983376  -2.422251
C    6.199020   1.735997  -1.875478
C    8.643890   3.019612  -1.237808
C    9.512485   4.120491  -3.578688
C   10.228389   5.027824  -5.508079
H    1.743783   1.079298   1.862249
H    1.748564  -2.157236   1.002934
H    1.222993   0.195700  -1.324471
H    6.141629  -0.630280   1.648314
H    4.786506  -1.377591  -3.729167
H    4.893635   2.928074  -2.916754
H   10.033671   1.692684  -0.467745
H    8.306783   4.482034   0.186648
H   10.874372   5.827689  -7.239465

