%chk=mol_0995.chk
# wB97XD/Def2SVP opt pop=full gfinput

C 4 H 5 N 1 O 1

1 2
C    1.886570  -0.066745   0.189993
C    4.762110   0.000000   0.000000
C    5.571536  -1.436494  -2.328842
O    7.152481  -0.730304  -3.869195
C    5.672996   2.572238   0.000000
N    6.399047   4.622572   0.000000
H    1.228114   0.892518   1.903030
H    1.190093  -2.016697   0.245041
H    0.998116   0.861980  -1.436003
H    5.550655  -1.022285   1.620308
H    4.727603  -3.334611  -2.529531

