%chk=mol_0259.chk
# wB97XD/Def2SVP opt pop=full gfinput

C 5 H 11 N 1

1 2
C    1.939199  -0.030141  -0.045864
C    4.804327  -0.014211   0.120149
C    5.828142   2.163491   1.686373
C    8.472530   1.264510   2.324949
C    8.217285  -1.594192   2.525713
N    5.745901  -2.244919   1.461836
H    1.273978  -1.641719  -1.161501
H    1.252813   1.699809  -0.949984
H    1.065749  -0.152558   1.827819
H    5.616720   0.046374  -1.787416
H    4.730551   2.431511   3.424751
H    5.843959   3.951795   0.648478
H    9.767654   1.747373   0.780173
H    9.190645   2.124638   4.061891
H    9.751988  -2.542022   1.512405
H    8.286053  -2.201777   4.501894
H    5.884116  -3.751276   0.271554

