%chk=mol_4362.chk
# wB97XD/Def2SVP opt pop=full gfinput

C 5 H 11 N 1 O 1

1 2
C    1.795467  -0.262729  -0.056692
C    4.683441  -0.365114   0.236650
C    5.397039  -2.066359   2.479264
C    5.810417  -1.514861  -2.186923
N    5.741328   2.184164   0.556260
C    5.157403   3.801354   2.495893
O    3.684342   3.409444   4.227714
H    1.250526   0.993920  -1.610576
H    0.868008   0.435884   1.655457
H    1.018184  -2.140549  -0.454687
H    4.573175  -1.391575   4.252848
H    7.450944  -2.130156   2.738591
H    4.731969  -4.005482   2.187623
H    5.344958  -0.363016  -3.844912
H    5.095004  -3.428833  -2.521122
H    7.876341  -1.619174  -2.072538
H    7.036093   2.788726  -0.715129
H    6.208261   5.593627   2.330788

