%chk=mol_5365.chk
# wB97XD/Def2SVP opt pop=full gfinput

C 4 H 7 N 1 O 2

1 2
C    6.060068  -1.016370   2.096575
O    5.265552   0.398127  -0.050437
C    6.239025   2.779031  -0.303490
C    7.875944   3.980368   1.217399
C    8.680967   6.585922   0.620435
N   10.284211   7.574948   2.370794
O    7.998134   7.774466  -1.234426
H    5.075408  -2.835893   2.076280
H    5.557004  -0.041517   3.852717
H    8.094094  -1.385131   2.019701
H    5.467431   3.645735  -1.999614
H    8.640867   3.118161   2.893794
H   10.864659   6.646412   3.936640
H   10.898258   9.364652   2.092531

