%chk=mol_5864.chk
# wB97XD/Def2SVP opt pop=full gfinput

C 4 H 6 N 2 O 1

1 2
N    2.486539  -0.974702  -0.662179
C    5.031830  -1.130094  -1.021057
O    5.976013  -2.904282  -2.165796
C    6.513772   1.029750   0.099759
C    9.329785   0.716546  -0.405422
C   10.752012   2.831433   0.682134
N   11.845257   4.520584   1.554527
H    1.634254   0.467102   0.255850
H    1.395903  -2.373250  -1.380275
H    6.146675   1.089975   2.138981
H    5.822624   2.800517  -0.726959
H    9.684279   0.617638  -2.444984
H   10.008160  -1.066391   0.405101

