%chk=mol_4614.chk
# wB97XD/Def2SVP opt pop=full gfinput

C 4 H 9 N 1 O 2

1 2
C    1.699128  -0.200500   0.667754
C    4.554145  -0.533564   0.563460
C    5.929866   1.949857   0.021770
O    5.398683   3.774029   1.943432
C    8.804593   1.577921  -0.200651
N   10.129650   3.793190  -0.364755
O    9.878317  -0.470750  -0.272669
H    0.779002  -2.029396   0.963741
H    0.981202   0.599516  -1.100010
H    1.143530   1.047664   2.220901
H    5.020322  -1.928995  -0.894748
H    5.189320  -1.311961   2.376104
H    5.273753   2.734604  -1.780028
H    5.846265   2.994517   3.550342
H    9.268106   5.449101   0.062739
H   12.036195   3.705772  -0.386978

