%chk=mol_2750.chk
# wB97XD/Def2SVP opt pop=full gfinput

C 6 H 10 O 1

1 2
C    3.329452  -1.065276  -2.218727
C    4.649501  -0.127197  -0.274691
C    5.761114   2.481758  -0.218887
C    8.628282   2.401766   0.131752
C    9.746943   5.058589   0.162573
C   12.571951   5.057361   0.556600
O   13.861122   3.158224   0.870994
H    2.566002  -2.968760  -2.145784
H    2.980457   0.028781  -3.918498
H    4.939045  -1.301530   1.389648
H    4.895071   3.528856   1.345750
H    5.300228   3.508787  -1.959533
H    9.498935   1.298639  -1.394675
H    9.095497   1.427820   1.903030
H    8.908282   6.180803   1.686203
H    9.369905   6.020346  -1.631098
H   13.458668   6.945537   0.557772

