%chk=mol_2795.chk
# wB97XD/Def2SVP opt pop=full gfinput

C 6 H 12 O 1

1 2
C    1.678285  -0.470863   0.143562
C    4.556130  -0.299200  -0.027968
C    5.556343  -2.047084  -2.098087
C    5.355200   2.389691  -0.540915
C    6.861841   3.732436   1.001423
C    7.681586   6.386991   0.515857
O    6.820267   7.918368   2.539036
H    0.951099   0.750883   1.649183
H    1.085194  -2.409136   0.564083
H    0.773389   0.098682  -1.630399
H    5.342728  -0.935509   1.782314
H    4.809221  -1.530319  -3.959260
H    5.019396  -4.010207  -1.720898
H    7.623477  -1.968188  -2.198678
H    4.653621   3.248496  -2.273832
H    7.580221   2.879924   2.729539
H    6.924127   7.142598  -1.254268
H    9.745015   6.496595   0.441251
H    5.013822   7.618280   2.691802

