%chk=mol_0435.chk
# wB97XD/Def2SVP opt pop=full gfinput

C 4 H 12 N 2

1 2
C    2.224340  -1.017088   0.307988
C    5.011100  -1.496304  -0.202182
N    6.395003   0.895258  -0.163367
C    9.097047   0.475228  -0.670796
C   10.584526   2.978227  -0.684837
N   10.090703   4.522719   1.569966
H    1.178093  -2.802369   0.280908
H    1.403065   0.223101  -1.131776
H    1.938481  -0.140067   2.160486
H    5.205081  -2.408361  -2.051921
H    5.753517  -2.790426   1.235087
H    6.260833   1.668874   1.600598
H    9.347908  -0.448621  -2.506703
H    9.892376  -0.769175   0.785295
H   10.076038   4.080127  -2.363178
H   12.609935   2.569102  -0.798353
H    8.248787   5.090355   1.485344
H   11.130166   6.140231   1.444677

