%chk=mol_5264.chk
# wB97XD/Def2SVP opt pop=full gfinput

C 4 H 3 N 1 O 2

1 2
C    3.383328   4.537856  -2.925806
N    4.915839   3.552345  -1.310431
O    7.064174   5.113844  -1.093660
C    8.743706   4.119773   0.610759
O    8.552995   2.173204   1.841500
C   10.956840   5.701890   0.856764
C   12.800684   7.012094   1.067695
H    1.582400   3.589422  -3.357665
H    3.777071   6.322155  -3.929383
H   14.441362   8.161236   1.267345

