%chk=mol_7115.chk
# wB97XD/Def2SVP opt pop=full gfinput

C 6 H 7 N 1

1 2
C    1.614317   0.425699  -0.313317
C    4.450154   0.108565  -0.370386
C    5.461157  -2.418831  -0.828607
C    4.107263  -4.526272  -1.210937
C    5.931888   2.150489   0.000000
C    8.588843   2.150489   0.000000
N   10.763937   2.150489   0.000000
H    1.054316   2.386894   0.042424
H    0.778151  -0.726089   1.190301
H    0.778567  -0.124722  -2.125564
H    7.510546  -2.629818  -0.866610
H    2.059537  -4.563556  -1.217947
H    5.060649  -6.314331  -1.535062
H    5.067187   3.980595   0.331798

