%chk=mol_1482.chk
# wB97XD/Def2SVP opt pop=full gfinput

C 6 H 13 N 1

1 2
C    4.429235  -0.842345  -2.735303
C    4.728208   0.056692  -0.010375
N    6.070008  -1.857979   1.471662
C    6.193483   2.541644   0.064213
C    4.807312   4.927820  -0.947887
C    6.146693   6.432892   1.155624
C    6.306262   3.936734   2.649774
H    3.375844   0.544052  -3.854588
H    3.396424  -2.633598  -2.820076
H    6.265462  -1.112557  -3.653256
H    2.849216   0.314054   0.822938
H    7.775807  -2.233052   0.655489
H    5.088503  -3.515741   1.416784
H    8.085704   2.346076  -0.780344
H    2.746018   4.877572  -0.744476
H    5.276947   5.485384  -2.881001
H    7.991595   7.189652   0.595453
H    5.037330   7.937795   2.032684
H    8.037289   3.661666   3.742962
H    4.672594   3.605786   3.880893

