%chk=mol_7108.chk
# wB97XD/Def2SVP opt pop=full gfinput

C 7 H 10

1 2
C    2.004999   0.006898   0.311729
C    4.524193  -0.005442   0.120735
C    6.145182   2.326801   0.013512
C    8.319898   1.493810  -1.668175
C    8.743253  -1.271824  -0.979558
C    6.153100  -2.187358  -0.237671
C    5.545382  -4.622799   0.072584
H    0.896656  -1.717402   0.276750
H    0.970601   1.770163   0.489496
H    6.828601   2.797796   1.911741
H    5.163450   3.968463  -0.769572
H    7.788034   1.659765  -3.665691
H   10.017703   2.635998  -1.373264
H    9.532421  -2.325459  -2.577152
H   10.038774  -1.422850   0.632151
H    3.672626  -5.214472   0.652617
H    6.935956  -6.099545  -0.223611

