%chk=mol_1341.chk
# wB97XD/Def2SVP opt pop=full gfinput

C 5 H 6 N 2

1 2
C    1.889726   0.000000   0.000000
C    4.618491   0.000000   0.000000
C    6.867567   0.000000   0.000000
C    9.579816  -0.051684  -0.014249
N   10.564439   2.091265   0.577349
N   13.194540   1.946853   0.537514
C   14.175270   4.099251   1.131738
H    1.145098   1.929165   0.022185
H    1.145023  -0.983735   1.659614
H    1.145004  -0.945336  -1.681762
H   10.606428  -1.795845  -0.495751
H   16.243519   4.313262   1.190849
H   13.034651   5.781372   1.596119

