%chk=mol_3057.chk
# wB97XD/Def2SVP opt pop=full gfinput

C 6 H 8 O 1

1 2
C    1.664093   0.368005  -0.098020
C    4.219815  -0.865268  -0.010677
C    4.163105  -3.676802   0.108754
O    2.183824  -4.881786   0.109982
C    6.369171   0.491140  -0.037265
C    8.946455  -0.411979   0.017934
C   10.935222   1.151958   0.019767
H    1.797526   2.430849  -0.199668
H    0.573815  -0.102461   1.597329
H    0.608454  -0.268171  -1.760620
H    5.996630  -4.649558   0.201577
H    6.184733   2.543704  -0.116993
H    9.322284  -2.428714   0.051098
H   10.732851   3.193448  -0.012888
H   12.846755   0.405441   0.056087

