%chk=mol_3907.chk
# wB97XD/Def2SVP opt pop=full gfinput

C 5 H 11 N 1 O 1

1 2
C    1.861078  -0.133415   0.205886
C    4.704303   0.133320   0.010809
C    5.960253   2.139529   1.712942
C    7.941461   0.077762   2.309415
C   10.368927   0.068257   0.737768
O   11.948719   2.117457   1.481980
N    6.054437  -1.829520   1.473778
H    1.207856  -1.811340  -0.814680
H    0.924303   1.512102  -0.628825
H    1.227169  -0.291131   2.170672
H    5.332656   0.245400  -1.963652
H    4.836055   2.708337   3.358724
H    6.638003   3.836182   0.748898
H    8.384904  -0.072206   4.329003
H   10.003870   0.232436  -1.292592
H   11.426172  -1.680628   1.059494
H   11.082771   3.678144   1.046644
H    6.746247  -3.296911   0.437339

