%chk=mol_0961.chk
# wB97XD/Def2SVP opt pop=full gfinput

C 4 H 7 N 1 O 1

1 2
C    2.014278   0.013493  -0.007805
C    4.830688   0.039665  -0.036321
N    6.187228  -1.991223  -0.132753
O    8.746824  -1.200864  -0.063722
C    8.798282   1.432242  -0.679810
C    6.275081   2.431889   0.164954
H    1.307331  -1.916598  -0.208682
H    1.302721   1.164222  -1.567698
H    1.342669   0.802321   1.778440
H    9.059026   1.620062  -2.724456
H   10.375277   2.351008   0.287503
H    5.541225   3.929421  -1.048118
H    6.288593   3.040645   2.140398

