%chk=mol_2246.chk
# wB97XD/Def2SVP opt pop=full gfinput

C 6 H 8 O 1

1 2
C    2.732997   0.754624  -0.463021
C    5.066072  -0.426568   0.542049
C    5.406733  -3.263330   0.513193
C    8.168738  -3.668639  -0.114310
C    9.348607  -1.424986  -0.284838
C    7.670266   0.736275   0.212235
O    6.274949   0.949115   2.533764
H    2.882532   2.818186  -0.523775
H    1.112879   0.267094   0.726751
H    2.347739   0.091595  -2.384438
H    4.229793  -4.140466  -0.945317
H    4.937722  -4.090652   2.349969
H    9.038560  -5.496325  -0.366607
H   11.337279  -1.188808  -0.696232
H    7.882142   2.391940  -0.969127

