%chk=mol_0104.chk
# wB97XD/Def2SVP opt pop=full gfinput

C 3 H 7 N 1 O 1

1 2
N    1.912422  -0.127727  -0.219095
C    4.666433  -0.048906  -0.024207
C    6.213231  -1.333485  -2.024634
C    6.167480   1.498874  -1.886136
O    8.403914   2.703593  -0.931011
H    1.126598   1.358354   0.725258
H    1.210256  -1.719934   0.607320
H    5.386211  -0.130353   1.898759
H    5.236904  -2.213398  -3.597018
H    7.909449  -2.321113  -1.448815
H    5.129227   2.492681  -3.350541
H    9.363688   1.614034   0.192658

