%chk=mol_0200.chk
# wB97XD/Def2SVP opt pop=full gfinput

C 4 H 8 O 1

1 2
C    1.782390   0.038380  -0.252656
C    4.584438  -0.028440   0.079595
O    5.373701  -0.132413   2.666536
C    6.205123  -1.427726  -1.786755
C    6.265028   1.415877  -1.697654
H    1.238016   0.111267  -2.248736
H    0.988686   1.703097   0.686575
H    0.920391  -1.647614   0.582810
H    7.200839  -0.064137   2.843225
H    5.296713  -2.316237  -3.393967
H    7.831743  -2.454641  -1.087027
H    7.936170   2.325195  -0.942312
H    5.396264   2.440978  -3.244187

