%chk=mol_4486.chk
# wB97XD/Def2SVP opt pop=full gfinput

C 4 H 8 N 2 O 1

1 2
C    1.834489   0.265393   0.214730
C    4.605187  -0.142750  -0.160513
C    5.748112  -2.368791  -0.566842
N    4.696215  -4.739905  -0.684534
C    6.183089   2.194067  -0.123607
N    8.628093   2.234053  -0.197401
O    9.452146   4.747616  -0.121887
H    1.102561   1.585820  -1.201110
H    1.475593   1.058643   2.091946
H    0.739091  -1.479523   0.050853
H    7.785577  -2.440033  -0.874849
H    2.980268  -4.903839   0.160494
H    5.907643  -6.145862  -0.176349
H    5.101315   3.978441  -0.011187
H   11.284046   4.561950  -0.211479

