%chk=mol_2896.chk
# wB97XD/Def2SVP opt pop=full gfinput

C 5 H 10 O 2

1 2
C    1.954922  -0.638614   0.269305
C    4.820937  -0.606697   0.070562
C    5.861156   2.082894   0.211045
C    8.741836   2.106459   0.022507
C    9.798098   4.758104   0.136022
O   12.344674   4.795823  -0.112363
O    8.561687   6.682355   0.423677
H    1.250413  -2.579986   0.155997
H    1.092791   0.447865  -1.265531
H    1.327854   0.167713   2.068211
H    5.387685  -1.487952  -1.716722
H    5.620764  -1.752475   1.600069
H    5.271523   2.968968   1.990184
H    5.052958   3.225328  -1.318708
H    9.328501   1.253758  -1.770938
H    9.555684   1.021756   1.587276
H   13.093175   3.124530  -0.325619

