%chk=mol_3148.chk
# wB97XD/Def2SVP opt pop=full gfinput

C 6 H 12 O 1

1 2
C    5.671200   6.821023   4.605319
C    8.089709   5.937898   3.349351
O    7.563383   3.664122   1.999519
C    9.694843   2.644653   0.635931
C   11.570623   1.245651   2.224680
C    9.023952   1.572233  -1.916050
C   10.496824   3.991498  -1.740230
H    5.986766   8.565883   5.665682
H    4.952065   5.374532   5.897231
H    4.196534   7.154692   3.192390
H    9.532931   5.585180   4.787980
H    8.773942   7.391985   2.045818
H   13.070801   0.399224   1.076785
H   10.632563  -0.274105   3.267809
H   12.470870   2.511295   3.590272
H    7.065232   1.677472  -2.509254
H   10.001167  -0.105881  -2.565851
H   12.475273   3.949131  -2.263816
H    9.531684   5.719766  -2.260150

