%chk=mol_0513.chk
# wB97XD/Def2SVP opt pop=full gfinput

C 4 H 8 N 2

1 2
C    2.442490  -0.712540  -0.474094
N    5.176187  -0.371010  -0.417270
N    5.972593   2.053717  -0.193395
C    8.404991   2.293485  -0.238880
C    9.613301   4.799111   0.000605
C   12.129736   5.011554  -0.022261
H    1.992206  -2.713685  -0.732609
H    1.604378   0.336919  -2.047027
H    1.579830  -0.072528   1.293725
H    5.910515  -1.489425   0.977650
H    9.690950   0.660969  -0.460092
H    8.370334   6.415904   0.189993
H   13.369548   3.388298  -0.215145
H   13.012787   6.855152   0.152406

