%chk=mol_0484.chk
# wB97XD/Def2SVP opt pop=full gfinput

C 5 H 13 N 1

1 2
C    2.130912   3.638346   2.049200
N    4.876740   3.819874   2.075354
C    5.973594   2.695619  -0.202484
C    8.880560   2.855981  -0.169867
C    9.966019   1.496493  -2.480454
C    9.822551   5.590962  -0.111702
H    1.366763   4.513819   3.759912
H    1.500518   1.668364   2.006020
H    1.330027   4.641885   0.426814
H    5.563202   2.916301   3.632526
H    5.249810   3.668450  -1.884151
H    5.407168   0.705321  -0.335502
H    9.589358   1.890142   1.524178
H    9.328803   2.380167  -4.240678
H    9.377898  -0.487417  -2.509613
H   12.034910   1.539295  -2.454811
H    9.118741   6.660358  -1.738208
H   11.891064   5.653512  -0.154239
H    9.211073   6.562565   1.609159

