%chk=mol_6544.chk
# wB97XD/Def2SVP opt pop=full gfinput

C 4 H 10 N 2 S 1

1 2
C    1.629756  -0.482466  -0.169962
C    4.513479  -0.427777  -0.233948
C    5.510441  -1.833847  -2.545367
N    5.426122   2.179856  -0.251560
C    5.612902   3.799087   1.712243
N    5.407433   2.865902   4.068259
S    6.020346   6.869910   1.231742
H    0.904952   0.474983   1.515655
H    0.927780  -2.428733  -0.147758
H    0.827190   0.475134  -1.820770
H    5.233219  -1.372659   1.459341
H    4.856898  -0.955653  -4.303643
H    4.885263  -3.806645  -2.537638
H    7.581071  -1.818332  -2.573429
H    5.444736   3.067517  -1.950859
H    5.852879   1.047267   4.423622
H    5.707502   4.093676   5.506927

