%chk=mol_4423.chk
# wB97XD/Def2SVP opt pop=full gfinput

C 5 H 13 N 1 O 1

1 2
C    1.851232  -0.815908  -0.208342
C    4.694760  -1.231705  -0.210761
C    6.129119   1.280308  -0.132262
C    8.993509   0.898565  -0.029291
O    9.819320  -0.401756  -2.250191
C   10.405040   3.440020   0.127311
N   13.146088   3.008708  -0.017593
H    0.861961  -2.630990  -0.290243
H    1.263528   0.310028  -1.841878
H    1.246822   0.166598   1.509513
H    5.215833  -2.298587  -1.906601
H    5.211978  -2.388595   1.427197
H    5.518378   2.376028   1.517696
H    5.635730   2.372948  -1.824266
H    9.491755  -0.279169   1.601978
H   11.608720   0.049756  -2.409835
H    9.932590   4.437455   1.877651
H    9.871835   4.640790  -1.473155
H   13.722473   2.057099   1.556719
H   14.046712   4.712504   0.040629

