%chk=mol_1800.chk
# wB97XD/Def2SVP opt pop=full gfinput

C 5 H 10 N 2

1 2
C    2.151264  -0.483675  -0.081202
N    4.803362   0.216109  -0.220040
C    5.441958   2.579457  -0.105466
C    3.572036   4.733915   0.160929
N    7.987702   3.091856  -0.174781
C    9.319222   5.294465   0.045901
C   11.831387   5.535121  -0.044994
H    2.008968  -2.543023   0.058506
H    1.135140   0.087457  -1.789306
H    1.227491   0.302659   1.594683
H    1.683557   4.224313  -0.492141
H    4.179073   6.358305  -0.963118
H    3.469235   5.287605   2.149866
H    9.043700   1.501198  -0.362185
H    8.167831   6.971332   0.327905
H   13.063544   3.920426  -0.318173
H   12.710752   7.377340   0.151651

