%chk=mol_3094.chk
# wB97XD/Def2SVP opt pop=full gfinput

C 5 H 12 O 2

1 2
C    0.967615   0.952894   0.535718
C    3.648022   0.167090  -0.119922
C    5.510347   2.336495   0.214219
O    7.967974   1.459039  -0.469805
C    9.835816   3.394742  -0.145509
C   12.378556   2.328558  -0.981788
O   12.256045   1.622368  -3.580974
H   -0.321235  -0.650708   0.328189
H    0.315169   2.466414  -0.713598
H    0.847920   1.625032   2.487806
H    3.722137  -0.522056  -2.073313
H    4.224180  -1.429786   1.069377
H    5.524614   2.968382   2.186413
H    4.983888   3.927531  -1.002424
H    9.917320   3.964457   1.841878
H    9.327632   5.019169  -1.325095
H   12.863139   0.635666   0.103217
H   13.879774   3.730319  -0.755002
H   10.703088   0.632435  -3.733778

