%chk=mol_4572.chk
# wB97XD/Def2SVP opt pop=full gfinput

C 5 H 6 N 2

1 2
C    1.695103  -2.373005   0.632775
C   -0.909884  -2.899558  -0.323521
C   -2.739725  -1.174087  -0.515933
C   -2.373534   1.406977   0.482863
N   -0.405762   2.841525   0.582244
N    1.834508   2.230670  -0.637858
C    2.784512  -0.022110  -0.530824
H    2.916150  -3.931934   0.016573
H    1.787227  -2.297491   2.694088
H   -1.316648  -4.833485  -0.890326
H   -4.622591  -1.652358  -1.166963
H   -4.110740   2.206274   1.317290
H    4.672423  -0.251239  -1.390120

