%chk=mol_2459.chk
# wB97XD/Def2SVP opt pop=full gfinput

C 5 H 6 O 2

1 2
C    1.741666   0.064005  -0.017121
C    4.536798  -0.036226  -0.003364
C    6.183543   1.994001   0.008504
O    8.628659   1.204285   0.019086
C    8.577958  -1.363929   0.013965
C    6.124848  -2.187547   0.000208
O    5.473138  -4.636632  -0.007899
H    1.056640   2.014146  -0.000945
H    0.976478  -0.898432   1.646651
H    0.994695  -0.863983  -1.708501
H    5.924253   4.019863   0.010979
H   10.392511  -2.296206   0.021089
H    3.645206  -4.805196  -0.017556

