%chk=mol_5336.chk
# wB97XD/Def2SVP opt pop=full gfinput

C 5 H 9 N 1 O 1

1 2
C    1.980376  -0.499096   0.023565
O    4.624311  -0.058317   0.029858
C    5.468886   2.529493   0.000000
C    4.548741   3.890965  -2.395398
C    4.548760   3.942838   2.364180
C    8.197651   2.529493   0.000000
N   10.372745   2.529493   0.000000
H    1.681932  -2.544592   0.055955
H    1.095909   0.234628  -1.691588
H    1.077238   0.291490   1.703267
H    5.019056   2.798855  -4.092183
H    5.400138   5.770260  -2.582783
H    2.494684   4.141335  -2.392885
H    5.019018   2.888560   4.085512
H    2.494212   4.193189   2.357112
H    5.399779   5.826536   2.510955

