%chk=mol_6429.chk
# wB97XD/Def2SVP opt pop=full gfinput

C 5 H 6 O 1 S 1

1 2
C    1.693365   0.201067  -0.015647
C    4.507753   0.121509   0.000151
C    6.192746   2.115700   0.009297
C    8.732708   1.265058   0.023225
O   10.795589   2.747416   0.034488
C    8.939973  -1.317819   0.024377
S    6.034973  -2.737268   0.008107
H    1.009567   2.154174  -0.000737
H    0.921846  -0.751450   1.651469
H    0.942803  -0.719003  -1.710316
H    5.605155   4.075440   0.005915
H   10.305282   4.517579   0.031691
H   10.646868  -2.438559   0.033769

