%chk=mol_3834.chk
# wB97XD/Def2SVP opt pop=full gfinput

C 5 H 9 N 1 O 1

1 2
C    1.140884   0.677278  -1.502446
C    0.127538   2.455831   0.473868
N    0.346462  -0.249123   0.971962
C    2.491056  -0.865684   2.626889
C    1.541469  -1.290173   5.335037
O    2.681408  -3.793172   5.393826
C    2.907192  -3.736253   2.652401
H   -0.081239   0.185798  -3.069973
H    3.139629   0.731815  -1.939596
H   -1.778743   3.164724   0.241148
H    1.427121   3.736669   1.400665
H    4.218644   0.265488   2.475466
H   -0.503347  -1.407941   5.635088
H    2.378768  -0.043672   6.755676
H    4.782217  -4.348978   2.034593
H    1.463158  -4.930371   1.772601

