%chk=mol_0510.chk
# wB97XD/Def2SVP opt pop=full gfinput

C 4 H 4 N 2

1 2
C    2.696280  -0.413567  -1.036949
N    5.070381  -0.341474  -0.483316
N    5.944852   2.142496  -0.507297
C    8.311394   2.226400   0.043407
C    9.290007   4.756101   0.039760
C   10.119729   6.869381   0.039609
H    1.703135  -2.239892  -1.101975
H    1.572725   1.291477  -1.460248
H    9.541227   0.607264   0.483751
H   10.838808   8.749508   0.034941

