%chk=mol_3621.chk
# wB97XD/Def2SVP opt pop=full gfinput

C 7 H 8

1 2
C    1.893014  -0.224651  -0.364812
C    4.724334  -0.025474   0.131903
C    5.720938   2.707637   0.000000
C    4.684612   4.245742   2.091228
C    3.842645   5.501711   3.785027
C    8.449702   2.707637   0.000000
C   10.698779   2.707637   0.000000
H    1.310695  -2.209846  -0.357064
H    1.406863   0.575573  -2.209336
H    0.794327   0.758612   1.084646
H    5.701493  -1.191926  -1.279477
H    5.146102  -0.866326   1.981907
H    5.074047   3.543010  -1.785980
H    3.104518   6.617405   5.290628
H   12.712546   2.713458   0.008504

