%chk=mol_4562.chk
# wB97XD/Def2SVP opt pop=full gfinput

C 5 H 5 N 1 O 1

1 2
C    1.641907   0.192865  -0.011886
C    4.473076   0.072225  -0.012491
C    5.574522  -2.522898  -0.028062
O    4.244344  -4.416649  -0.039457
C    5.931888   2.150489   0.000000
C    8.588843   2.150489   0.000000
N   10.763937   2.150489   0.000000
H    0.950816   2.144575  -0.000189
H    0.874698  -0.749862   1.663639
H    0.874811  -0.729718  -1.698543
H    7.654052  -2.665289  -0.028875
H    5.047553   4.001760   0.011093

