%chk=mol_5724.chk
# wB97XD/Def2SVP opt pop=full gfinput

C 4 H 6 N 2 O 1

1 2
N    1.922154  -0.031048   0.089271
C    4.667624   0.000000   0.000000
C    5.578509   2.572238   0.000000
C    6.329260   4.692322   0.000000
C    7.389642   7.199347  -0.019086
N    9.958327   7.316132   0.056030
O    6.047331   9.071082  -0.115103
H    1.299168  -1.839138  -0.108584
H    1.230665   0.951307  -1.416104
H    5.310716  -0.992730  -1.698202
H    5.408340  -1.030940   1.633404
H   11.040328   5.748566   0.142618
H   10.782701   9.036538   0.048774

