%chk=mol_3530.chk
# wB97XD/Def2SVP opt pop=full gfinput

C 5 H 8 O 2

1 2
O    2.040848   0.048831   0.708137
C    4.699201   0.047186   0.229413
C    5.412100  -2.445495  -1.084986
C    5.064334  -1.883679  -3.840566
O    7.108545  -0.590161  -5.046495
C    5.030300   0.911925  -4.194191
C    5.361607   2.148789  -1.666776
H    1.628906   1.644723   1.526389
H    5.664284   0.274804   2.043493
H    4.201636  -4.011643  -0.487058
H    7.389604  -2.932231  -0.714864
H    3.813127  -3.091214  -4.898699
H    3.754262   1.785546  -5.517112
H    7.327073   2.753955  -1.435568
H    4.117940   3.790280  -1.476216

