%chk=mol_3653.chk
# wB97XD/Def2SVP opt pop=full gfinput

C 5 H 8 O 2

1 2
O    4.612425  -0.725485   2.617101
C    4.699371   0.035621   0.043237
C    5.702910   2.664646  -0.114404
C    7.963778   3.395819  -0.945052
C    8.167056   6.171373  -0.713107
C    5.467866   6.885444  -0.006123
O    4.115634   4.618434   0.660629
H    3.585302  -2.243294   2.681276
H    2.791144  -0.046336  -0.752338
H    5.897476  -1.296881  -0.990141
H    9.450709   2.161015  -1.595798
H    9.504453   6.689423   0.777887
H    8.753778   7.081503  -2.473481
H    4.487816   7.772406  -1.601448
H    5.416730   8.198993   1.591773

