%chk=mol_6732.chk
# wB97XD/Def2SVP opt pop=full gfinput

C 5 H 10 N 2

1 2
C    2.128210   0.394953  -0.026645
C    4.981375  -0.073491   0.013058
C    5.674092  -2.392148  -1.554413
C    6.560014  -1.123952  -3.914794
N    6.972806   1.273543  -3.726937
N    6.489943   1.861437  -1.280535
C    5.919227   4.472056  -0.652163
H    1.625051   2.060633   1.092129
H    1.122913  -1.223050   0.783783
H    1.421376   0.675331  -1.952333
H    5.606175  -0.313657   1.972742
H    4.093789  -3.657300  -1.960818
H    7.253903  -3.461827  -0.756344
H    6.872991  -2.214098  -5.654495
H    5.802952   4.736863   1.397282
H    4.144415   5.098557  -1.511422
H    7.426567   5.714135  -1.337567

