%chk=mol_6771.chk
# wB97XD/Def2SVP opt pop=full gfinput

C 5 H 12 N 2

1 2
C    2.011217   0.185382  -0.193111
C    4.825094   0.079898  -0.104086
C    6.387860  -1.299508  -2.045232
N    5.205213  -2.647771  -4.151275
C    6.511070   1.577732  -1.886986
C    5.392031   3.153915  -3.987643
N    8.803157   2.722472  -0.760331
H    1.328685   1.710864   1.028162
H    1.220253  -1.591981   0.514913
H    1.242571   0.503310  -2.083688
H    5.438084  -0.118864   1.845053
H    8.045094  -2.291520  -1.330367
H    3.621263  -1.764910  -4.787602
H    4.649406  -4.406615  -3.598946
H    3.741223   2.300798  -4.886416
H    6.806264   3.463528  -5.470870
H    4.815343   5.003126  -3.257151
H    9.569119   1.584157   0.589084
H    8.358354   4.376965   0.119091

