%chk=mol_2509.chk
# wB97XD/Def2SVP opt pop=full gfinput

C 6 H 10 O 1

1 2
C    1.908699   0.030236  -0.155468
C    4.689072   0.241601   0.176670
O    6.140722  -1.221954  -1.566035
C    6.321908   1.485703  -1.810395
C    8.558287   2.925542  -0.975136
C    8.041370   5.518567   0.074417
C   10.934711   2.047424  -1.151391
H    0.966727   1.668893   0.684875
H    1.204474  -1.671274   0.786901
H    1.367255  -0.069353  -2.150981
H    5.272941   0.248367   2.134729
H    5.393751   2.296131  -3.451131
H    7.055935   6.676459  -1.329498
H    9.779919   6.510749   0.600385
H    6.854585   5.388176   1.764343
H   11.305778   0.178711  -1.917184
H   12.551429   3.147263  -0.535605

