%chk=mol_5550.chk
# wB97XD/Def2SVP opt pop=full gfinput

C 4 H 8 N 2 O 1

1 2
N    1.804991   0.065611  -0.146246
C    4.560212   0.015477   0.242320
C    5.734506   2.511352  -0.586306
C    6.884121   2.235546  -3.188648
O    8.669005   0.217470  -3.057407
N    7.501438  -2.164209  -2.799724
C    5.617343  -2.212435  -1.227264
H    1.048533   1.542489   0.836809
H    1.010682  -1.519378   0.613065
H    4.913685  -0.315093   2.254575
H    4.381538   4.079937  -0.543674
H    7.236139   2.992230   0.762505
H    7.908579   3.955008  -3.709136
H    5.476219   1.855900  -4.659309
H    4.706382  -4.058754  -0.896448

