%chk=mol_0779.chk
# wB97XD/Def2SVP opt pop=full gfinput

C 5 H 8 O 1

1 2
C    5.034495  -2.347456  -2.283129
C    6.085561  -1.197652   0.098927
O    6.518289  -2.502413   1.976786
C    6.584165   1.632837   0.060377
C    9.343562   2.139321   0.450681
C   10.826241   3.354472  -1.201526
H    6.355546  -2.045099  -3.840509
H    3.207886  -1.487744  -2.716444
H    4.768591  -4.379006  -2.016791
H    5.470039   2.502357   1.572328
H    5.912386   2.424594  -1.731027
H   10.159943   1.456752   2.213833
H   10.110299   4.078615  -2.981950
H   12.814857   3.657093  -0.790699

