%chk=mol_6125.chk
# wB97XD/Def2SVP opt pop=full gfinput

C 6 H 11 N 1

1 2
C    1.900970   0.057637   0.047054
C    4.706854  -0.020787  -0.043313
C    6.180822  -2.072670  -0.183398
C    8.923891  -1.392331  -0.163178
C    8.911401   1.476934  -0.673933
N    9.411989   2.046970  -3.352336
C    6.241690   2.362025   0.087646
H    1.083852  -1.840688  -0.049303
H    1.160632   1.150484  -1.545191
H    1.260787   0.940214   1.804348
H    5.504678  -4.000437  -0.241072
H    9.741501  -1.813570   1.691721
H    9.981250  -2.449576  -1.592793
H   10.357872   2.437104   0.453005
H    8.041578   1.206798  -4.420882
H   11.068031   1.220385  -3.881743
H    5.510460   3.829795  -1.175126
H    6.235038   3.103214   2.021572

