%chk=mol_5783.chk
# wB97XD/Def2SVP opt pop=full gfinput

C 4 H 9 N 1 O 2

1 2
N    2.285302   0.288769   0.109850
C    5.006357  -0.182132  -0.243227
C    5.445945  -1.548215  -2.780222
O    3.987039  -0.389284  -4.742967
C    6.325896   2.331034  -0.207435
C    7.395009   3.413110   2.203610
O    8.973762   2.195673   0.370575
H    2.013333   1.102976   1.834792
H    1.370335  -1.407355   0.190012
H    5.706368  -1.376363   1.295180
H    4.831879  -3.519464  -2.644766
H    7.437697  -1.514937  -3.340809
H    2.522501   0.335464  -3.871293
H    5.741007   3.608546  -1.696124
H    7.081163   2.429848   3.971222
H    7.545034   5.448099   2.370869

