%chk=mol_5759.chk
# wB97XD/Def2SVP opt pop=full gfinput

C 4 H 5 N 1 O 2

1 2
N    1.852820  -0.256020   0.969411
C    4.339132  -0.035584   0.241696
C    5.730576   2.072954  -0.028573
C    4.643416   4.625464   0.367571
O    2.376860   5.024536   0.669568
C    8.417369   1.788248  -0.735122
O    9.816277   3.606089  -1.047437
H    0.857142  -1.623161   0.052327
H    0.914514   1.448758   0.971603
H    5.164187  -1.891918  -0.086776
H    6.020970   6.189684   0.348447
H    9.106363  -0.164482  -0.973096

