%chk=mol_1056.chk
# wB97XD/Def2SVP opt pop=full gfinput

C 4 H 9 N 1 O 1

1 2
C    4.604696  -1.748620  -1.388212
O    3.865870   0.607963  -0.334141
C    5.975938   2.277630   0.090896
C    6.540267   4.131376  -1.984420
C    5.295561   5.029846   0.397220
N    6.708433   6.651023   2.139094
H    2.910953  -2.894248  -1.682801
H    5.867430  -2.747832  -0.091104
H    5.539694  -1.461325  -3.209965
H    7.548870   1.570249   1.201110
H    5.393770   4.063743  -3.680015
H    8.495283   4.632796  -2.320905
H    3.298933   5.502145   0.250767
H    8.540730   6.086336   2.309737
H    5.951730   6.538490   3.908653

