%chk=mol_2298.chk
# wB97XD/Def2SVP opt pop=full gfinput

C 6 H 6 O 1

1 2
C    1.861853   0.030160   0.027477
C    4.373714   0.288788   0.024340
C    5.670917   2.713193   0.029536
C    8.179472   2.332300   0.089970
C    8.884925  -0.359993   0.106940
O    8.114068  -2.101791   2.027978
C    6.316107  -1.740910   0.035300
H    0.999060  -1.829841   0.045637
H    0.607755   1.654682   0.033656
H    4.738507   4.526536   0.027477
H    9.574071   3.824296   0.141295
H   10.326768  -0.945770  -1.221179
H    6.078209  -3.238386  -1.340572

