%chk=mol_5412.chk
# wB97XD/Def2SVP opt pop=full gfinput

C 4 H 10 N 2 O 1

1 2
C    4.865535  -1.005410   0.055445
O    7.271591   0.138422   0.529596
C    7.790377   2.509235  -0.292171
N    6.159846   3.905856  -1.439971
N   10.217731   3.264313   0.227183
C   12.110367   1.479920   1.114617
C   11.183551   5.549105  -0.964441
H    4.939423  -2.950014   0.750165
H    4.472094  -1.054826  -1.973517
H    3.383139   0.003383   1.083134
H    4.469807   3.014699  -1.611029
H   11.415269   0.398146   2.736909
H   13.828581   2.448424   1.742951
H   12.627509   0.163650  -0.395935
H    9.851842   7.120790  -0.761824
H   11.525535   5.220217  -2.978832
H   12.961802   6.159203  -0.098625

