%chk=mol_6761.chk
# wB97XD/Def2SVP opt pop=full gfinput

C 6 H 11 N 1

1 2
C    1.778308   0.134095  -0.397088
C    4.551916  -0.119109   0.027703
C    6.226515  -1.692344  -1.648030
N    5.204741  -3.087302  -3.805852
C    6.388767   1.161180  -1.740627
C    8.597536   2.430641  -0.647288
C   10.961130   2.302877  -1.543736
H    1.047230   1.753420   0.665524
H    0.795990  -1.561877   0.267982
H    1.297146   0.423374  -2.389275
H    4.977860  -0.155581   2.033515
H    7.762768  -2.681521  -0.700446
H    3.945729  -2.031361  -4.807104
H    4.244816  -4.645514  -3.205977
H    5.626716   2.103549  -3.395743
H    8.256554   3.595620   1.011627
H   11.405140   1.179208  -3.202632
H   12.493471   3.315033  -0.631773

