%chk=mol_0977.chk
# wB97XD/Def2SVP opt pop=full gfinput

C 4 H 9 N 1 O 1

1 2
C    3.867986  -0.618224   2.629346
C    4.573761   0.161647  -0.037606
C    5.753971   2.768052  -0.042084
C    4.017539   5.025122   0.174214
N    8.204133   2.929094  -0.142164
O    9.006529   5.449044  -0.064931
H    3.046314  -2.516492   2.633031
H    2.484895   0.685026   3.450167
H    5.529263  -0.627559   3.864282
H    2.901013   0.176935  -1.253814
H    5.917224  -1.196839  -0.834446
H    2.044060   4.437833   0.012283
H    4.424132   6.375785  -1.333939
H    4.295763   5.928184   2.010990
H   10.839885   5.278666  -0.156110

