%chk=mol_6311.chk
# wB97XD/Def2SVP opt pop=full gfinput

C 4 H 7 N 1 O 2

1 2
O    2.427070  -0.008069   1.580359
C    3.906461   0.274010  -0.514913
O    3.575778  -1.033132  -2.397873
C    5.966432   2.382397  -0.144224
C    5.297186   5.084403  -1.007999
C    6.545558   5.931888   1.469375
N    5.991509   3.397482   2.528699
H    3.016003   1.252548   2.821097
H    7.844782   1.762453  -0.770252
H    3.265806   5.480281  -1.111140
H    6.206012   5.736490  -2.743977
H    8.570191   6.337215   1.301209
H    5.622030   7.500040   2.446402
H    7.433824   2.696242   3.608772

