%chk=mol_3331.chk
# wB97XD/Def2SVP opt pop=full gfinput

C 7 H 12

1 2
C    2.545386  -0.694172  -1.309523
C    5.014804  -0.386222   0.127235
C    5.726702   2.347777   0.394480
C    7.864662   3.341074  -0.537892
C    8.524026   5.972064  -0.242962
C   10.669677   6.961940  -1.163334
C   11.395672   9.675284  -0.877305
H    2.057345  -2.698378  -1.468884
H    2.690214   0.083337  -3.222531
H    0.988232   0.265450  -0.339811
H    6.503455  -1.451121  -0.842497
H    4.817366  -1.208442   2.017547
H    4.405689   3.534223   1.432299
H    9.183843   2.142874  -1.563408
H    7.202767   7.172229   0.776507
H   12.002123   5.776080  -2.183881
H    9.979530  10.760139   0.169735
H   11.624952  10.542480  -2.740405
H   13.194219   9.818998   0.132942

