%chk=mol_2096.chk
# wB97XD/Def2SVP opt pop=full gfinput

C 5 H 12 N 2

1 2
N    1.447776  -0.156621   0.105919
C    4.188578  -0.422127   0.495600
C    5.557156   2.152474   0.172721
N    4.258781   4.108340   1.685352
C    8.377288   2.018851   0.881160
C    9.849669   0.197628  -0.733932
C   11.111004  -1.801627   0.168828
H    0.639786  -1.903956   0.178390
H    1.137143   0.494107  -1.682404
H    4.925647  -1.807221  -0.853155
H    4.503199  -1.160651   2.404317
H    5.394431   2.727045  -1.814383
H    4.485511   3.689955   3.551513
H    2.362044   3.815905   1.396413
H    8.576371   1.527031   2.890695
H    9.230273   3.893837   0.648592
H    9.889523   0.575441  -2.754918
H   11.149479  -2.241725   2.172599
H   12.155021  -3.039417  -1.090920

