%chk=mol_6905.chk
# wB97XD/Def2SVP opt pop=full gfinput

C 6 H 13 N 1

1 2
C    4.355781  -0.625707  -2.958498
C    4.550007   0.229205  -0.219265
C    5.957381   2.735700   0.058355
C    4.626050   4.983529  -1.149577
C    5.584386   7.259024   0.331893
C    6.867926   6.163833   2.661377
N    6.108275   3.510166   2.713779
H    3.427113  -2.471138  -3.063775
H    6.230786  -0.802756  -3.814167
H    3.246568   0.705435  -4.087024
H    5.536501  -1.238848   0.862698
H    2.641327   0.375262   0.577784
H    7.875131   2.552888  -0.714505
H    2.567401   4.842026  -0.945846
H    5.052787   5.155324  -3.166520
H    6.928549   8.363342  -0.789981
H    4.008582   8.500385   0.842629
H    8.926311   6.316637   2.482401
H    6.297739   7.143033   4.390117
H    7.395897   2.446024   3.669754

