%chk=mol_6146.chk
# wB97XD/Def2SVP opt pop=full gfinput

C 4 H 3 N 1 O 2

1 2
O    5.087785  -2.153815   0.234080
C    4.148705  -0.042538   0.036510
C    5.557987   2.304162   0.023905
C    4.552766   4.693966  -0.194850
O    6.484860   6.394285  -0.127122
C    8.583778   4.931410   0.131960
N    8.153639   2.490092   0.232493
H    2.083366   0.171814  -0.149780
H    2.674435   5.469018  -0.396786
H   10.377356   5.904393   0.228770

