%chk=mol_5731.chk
# wB97XD/Def2SVP opt pop=full gfinput

C 4 H 7 N 1 O 2

1 2
N    6.207410  -1.560271   1.253361
C    4.744516   0.044050  -0.475682
C    5.559688   2.744279  -0.268039
C    3.990402   4.639467   0.362468
C    8.213336   3.422426  -0.905047
O    9.863539   1.543793  -0.395028
O    8.852214   5.464521  -1.763455
H    5.727287  -3.403038   0.902665
H    5.560916  -1.242873   3.052607
H    2.727347  -0.180318  -0.065555
H    5.046892  -0.610022  -2.417356
H    2.016262   4.306951   0.801641
H    4.645154   6.587358   0.439456
H    9.016715   0.082864   0.410694

