%chk=mol_4104.chk
# wB97XD/Def2SVP opt pop=full gfinput

C 5 H 11 N 1 O 1

1 2
C    1.848511   0.063192   0.199498
C    4.698483  -0.131090  -0.032579
N    6.050317   1.818956   1.460721
C    7.928157  -0.098341   2.274644
C   10.377658   0.127897   0.784671
C    6.024768  -2.209128   1.548971
O    6.964548  -4.397298   0.217507
H    0.941915  -1.538313  -0.746196
H    1.154982   1.795202  -0.695892
H    1.226753   0.065762   2.173317
H    5.274075  -0.132186  -2.027071
H    5.016297   2.528680   2.928169
H    8.323695  -0.032352   4.309048
H   10.057501   0.150687  -1.260995
H   11.627901  -1.464935   1.210766
H   11.383182   1.865500   1.290116
H    4.903783  -2.826501   3.183093
H    7.831347  -3.732039  -1.260712

