%chk=mol_1182.chk
# wB97XD/Def2SVP opt pop=full gfinput

C 6 H 13 N 1

1 2
C    2.167629  -1.050442  -0.103765
C    5.007680  -0.623496   0.008485
C    5.655478   2.190589  -0.077535
C    8.461608   2.606613   0.040421
C    9.800214   3.728127  -1.801419
C   12.585122   4.176919  -1.705969
N   13.778995   2.957459  -3.860162
H    1.743934  -3.073923  -0.036925
H    1.371658  -0.285594  -1.853500
H    1.217532  -0.142202   1.494036
H    5.903637  -1.608119  -1.579981
H    5.750531  -1.472701   1.747241
H    4.781253   3.162192   1.530149
H    4.860338   3.036563  -1.794937
H    9.414162   1.957851   1.743291
H    8.843163   4.391459  -3.496768
H   13.415109   3.459352   0.049492
H   12.946532   6.212532  -1.783731
H   13.509841   1.055809  -3.715995
H   15.680135   3.234077  -3.759912

