%chk=mol_2483.chk
# wB97XD/Def2SVP opt pop=full gfinput

C 6 H 12 O 1

1 2
C    1.911590   0.056163  -0.130882
C    4.765265  -0.099116   0.107091
C    5.884777   1.971948   1.735260
O    8.320124   1.048231   2.462956
C    8.141998  -1.651186   2.706428
C   10.490777  -2.846759   1.570343
C    5.693688  -2.473746   1.418655
H    1.186597  -1.503542  -1.279741
H    1.345976   1.833677  -1.024628
H    0.991823  -0.040440   1.722429
H    5.622238  -0.010488  -1.780065
H    4.780005   2.310323   3.453305
H    6.097447   3.758212   0.717737
H    8.062271  -2.098673   4.725052
H   10.686137  -2.358870  -0.427985
H   10.443590  -4.906825   1.752135
H   12.188582  -2.141116   2.526450
H    5.949387  -4.047718   0.101044
H    4.344027  -3.108297   2.858494

