%chk=mol_1290.chk
# wB97XD/Def2SVP opt pop=full gfinput

C 6 H 11 N 1

1 2
C    5.368126  -1.634292  -2.113451
C    4.673897  -0.009543   0.163594
C    5.720938   2.707637   0.000000
C    4.733820   4.364323   2.199736
N    1.986064   4.699125   2.167894
C    8.449702   2.707637   0.000000
C   10.698779   2.707637   0.000000
H    4.458317  -3.487433  -1.966525
H    7.408407  -1.948383  -2.234431
H    4.736882  -0.751034  -3.876093
H    5.358281  -0.941632   1.885323
H    2.606858   0.039382   0.290678
H    5.059988   3.549303  -1.778950
H    5.615416   6.237948   2.116550
H    5.276588   3.526985   4.014931
H    1.465388   5.602603   0.547170
H    1.475971   5.862120   3.616917
H   12.712868   2.700513  -0.002797

