%chk=mol_2434.chk
# wB97XD/Def2SVP opt pop=full gfinput

C 6 H 8 O 1

1 2
C    1.671765  -0.039023   0.318173
C    4.523777  -0.009241  -0.082562
C    5.937954   1.932604   1.565014
O    7.154239  -0.032409   3.025414
C    5.970873  -1.974027   1.508134
C    5.179758   0.035187  -2.754106
C    5.727609   0.071810  -4.953955
H    1.186899  -0.072754   2.331582
H    0.812299  -1.709597  -0.554143
H    0.784199   1.641888  -0.504784
H    4.758104   3.130464   2.771453
H    7.333385   3.121015   0.603465
H    7.385843  -3.110130   0.512947
H    4.811810  -3.226084   2.678857
H    6.222944   0.104407  -6.907837

