%chk=mol_5589.chk
# wB97XD/Def2SVP opt pop=full gfinput

C 4 H 7 N 1 O 2

1 2
N    1.879635   0.017990  -0.174705
C    4.620059  -0.016497   0.113384
C    5.676473   2.048954   1.801457
O    8.076576   1.114863   2.612357
C    8.065011  -1.463102   2.435555
O    9.815181  -2.811251   3.095277
C    5.588657  -2.374876   1.407052
H    1.311470  -1.451234  -1.289039
H    1.326248   1.624654  -1.087424
H    5.500369   0.129767  -1.759883
H    4.512817   2.403070   3.478362
H    5.929545   3.827508   0.778340
H    5.862138  -3.921730   0.067293
H    4.397242  -2.980249   2.984898

