%chk=mol_1326.chk
# wB97XD/Def2SVP opt pop=full gfinput

C 5 H 6 N 2

1 2
C    2.058705  -0.394820  -0.574892
C    4.886964  -0.077687  -0.112174
C    5.720938   2.707637   0.000000
C    4.689771   3.968104   2.189550
N    3.867854   4.972814   3.934826
C    8.500347   2.846665  -0.040440
N   10.691277   2.930323  -0.123191
H    1.589562  -2.402409  -0.742625
H    1.486137   0.543920  -2.325686
H    0.943143   0.385164   0.981448
H    5.895681  -1.045586  -1.647029
H    5.399023  -1.064785   1.639224
H    5.024612   3.659247  -1.706914

