%chk=mol_7000.chk
# wB97XD/Def2SVP opt pop=full gfinput

C 5 H 6 N 2

1 2
C    5.392409  -2.230746   0.670154
C    4.328323   0.018689   0.226635
C    5.775438   2.390145   0.034336
N    4.759332   4.580677  -0.395539
N    6.718959   6.434045  -0.457068
C    8.842897   5.298074  -0.062569
C    8.580074   2.531780   0.314072
H    4.219739  -3.911714   0.790642
H    7.408974  -2.488618   0.923906
H    2.298928   0.202692  -0.017726
H   10.690162   6.239214  -0.002419
H    9.572427   1.495964  -1.166358
H    9.211885   1.988975   2.199566

