%chk=mol_2149.chk
# wB97XD/Def2SVP opt pop=full gfinput

C 5 H 10 N 2

1 2
N    1.188789   2.103379  -1.748507
N    3.693319   1.829482  -2.158105
C    5.041997   2.338895  -0.180091
C    7.874848   2.131573  -0.269059
C    9.045231   4.734841   0.106599
C   11.880708   4.612066   0.028195
C   13.386045   5.239058   1.963142
H    0.268719   2.090850  -3.450413
H    0.483108   0.560871  -0.817817
H    4.194266   2.950921   1.630286
H    8.452896   1.309335  -2.079549
H    8.457072   0.844216   1.245197
H    8.395524   5.548330   1.898816
H    8.397924   6.023464  -1.383903
H   12.735432   3.987209  -1.736658
H   12.632026   5.887158   3.756889
H   15.426911   5.119401   1.782862

