%chk=mol_0819.chk
# wB97XD/Def2SVP opt pop=full gfinput

C 5 H 12 O 1

1 2
C    1.831957  -0.106977  -0.032900
O    4.492030   0.235819  -0.013039
C    5.402841   2.791541  -0.034865
C    4.596003   4.188880  -2.439315
C    4.564671   4.239563   2.329465
C    8.295576   2.562847  -0.013625
H    1.456771  -2.139945  -0.007408
H    0.985473   0.666714  -1.749868
H    0.952989   0.715507   1.644534
H    5.026369   3.066326  -4.126444
H    5.548557   6.020648  -2.606991
H    2.556856   4.549043  -2.463523
H    4.973022   3.152422   4.044638
H    2.526073   4.599480   2.319166
H    5.515468   6.073807   2.470515
H    8.939595   1.525954   1.660880
H    9.215325   4.416120  -0.027250
H    8.961157   1.490616  -1.656647

