%chk=mol_2208.chk
# wB97XD/Def2SVP opt pop=full gfinput

C 6 H 10 O 1

1 2
C    1.553260  -2.338933   0.970431
C    3.146281  -0.144394  -0.008938
O    1.740098   1.928144  -0.980295
C   -0.165464   2.856416   0.672742
C   -2.604893   1.476462   0.259006
C   -2.872573  -0.961927  -0.392458
C   -0.794857  -2.887917  -0.618413
H    2.746509  -4.030616   1.061573
H    0.975023  -1.948100   2.924370
H    4.340928  -0.815549  -1.559742
H    4.421373   0.535454   1.473665
H    0.427494   2.809494   2.656842
H   -0.456463   4.841157   0.164690
H   -4.299240   2.626776   0.432691
H   -4.773921  -1.666228  -0.750713
H   -1.569550  -4.700259   0.029140
H   -0.294079  -3.136586  -2.612679

