%chk=mol_0040.chk
# wB97XD/Def2SVP opt pop=full gfinput

C 3 H 6 O 1

1 2
C    1.860794  -0.060830  -0.101724
C    4.712845   0.045599   0.140180
C    5.611977   2.743145   0.070676
O    7.023564   3.657735   1.667589
H    1.203623  -2.020495  -0.048207
H    1.232593   0.785143  -1.882488
H    0.948718   0.974135   1.440368
H    5.607630  -0.969921  -1.423776
H    5.316934  -0.822768   1.917656
H    5.014615   3.859841  -1.586217

