%chk=mol_1881.chk
# wB97XD/Def2SVP opt pop=full gfinput

C 5 H 10 N 2

1 2
N    2.064394  -0.299200  -0.086757
C    4.730589   0.244172  -0.003987
C    6.312668  -1.084136  -2.053320
C    8.393597  -0.593752   0.014570
C    6.232411  -1.360149   1.905883
N    8.518905   2.214400   0.206037
C    5.808130   2.869228   0.196210
H    1.096098   0.295988   1.468053
H    1.640131  -2.166666  -0.295534
H    6.543101  -0.101667  -3.859728
H    5.892204  -3.077816  -2.434024
H   10.159924  -1.646764  -0.027571
H    5.802404  -3.386068   1.988956
H    6.384119  -0.637877   3.838714
H    9.320904   2.845209   1.840234
H    5.343427   4.062061  -1.427972
H    5.256632   3.827716   1.945284

