%chk=mol_6148.chk
# wB97XD/Def2SVP opt pop=full gfinput

C 4 H 9 N 1 O 2

1 2
O    2.632218  -1.497948   1.326474
C    2.822268   0.973020   0.256738
C    5.556399   1.787946   0.246042
C    6.886956   1.584781   2.766937
O    7.422315  -0.995980   3.305509
C    7.095827   1.351570  -2.126717
N    6.240972   3.886940  -1.465539
H    0.856556  -1.967167   1.211825
H    1.690511   2.271338   1.404104
H    2.026977   0.912662  -1.653661
H    5.711659   2.351821   4.289660
H    8.686108   2.609145   2.779390
H    5.846680  -1.906034   2.946650
H    6.192235   0.486227  -3.746212
H    9.100921   0.970922  -1.949574
H    7.706795   4.925552  -0.755153

