%chk=mol_5235.chk
# wB97XD/Def2SVP opt pop=full gfinput

C 4 H 10 N 2 O 1

1 2
C    4.020336  -2.002940  -0.655092
N    6.649455  -1.215547  -0.416760
N    7.032597   1.308371  -0.288221
C    9.357074   2.062882   0.021014
C   11.623100   0.350525   0.300240
C    9.822872   4.895638   0.158926
O    9.735699   5.702891   2.712777
H    3.902398  -4.068127  -0.633361
H    3.202670  -1.321769  -2.429753
H    2.891073  -1.285070   0.921279
H    7.670512  -2.027298  -1.842559
H   11.198272  -1.231950   1.560593
H   13.216102   1.397641   1.099688
H   12.163940  -0.367230  -1.559421
H    8.382409   5.913539  -0.919730
H   11.679811   5.345374  -0.626690
H    8.049685   5.266969   3.320419

