%chk=mol_6369.chk
# wB97XD/Def2SVP opt pop=full gfinput

C 5 H 8 N 2

1 2
C    1.881071  -0.079803   0.143997
C    4.732063   0.117409  -0.007030
C    6.019212   2.085540   1.718158
C    7.957712  -0.013134   2.309378
N    6.016775  -1.883566   1.475158
C   10.230222  -0.034450   0.755097
N   12.020567  -0.068805  -0.513590
H    1.201620  -1.724129  -0.913456
H    0.999041   1.601637  -0.678544
H    1.214017  -0.251957   2.096254
H    5.390803   0.216336  -1.973101
H    4.898567   2.662756   3.364487
H    6.726896   3.783213   0.774334
H    8.402761  -0.167316   4.326358
H    6.696112  -3.349615   0.422410

