%chk=mol_3538.chk
# wB97XD/Def2SVP opt pop=full gfinput

C 6 H 8 O 1

1 2
O    1.720558   0.006992   0.177653
C    4.433354   0.017556   0.033599
C    5.789119   1.990997   1.703475
C    7.800355  -0.038040   2.331695
C    5.807601  -2.043607   1.579017
C   10.056178   0.015458   0.769893
C   11.916254   0.059583  -0.528991
H    1.197973  -1.433924  -0.836998
H    5.053203   0.090140  -1.944434
H    4.683951   2.600433   3.347820
H    6.458744   3.677275   0.710991
H    8.277530  -0.097567   4.347863
H    6.491512  -3.659303   0.484242
H    4.708234  -2.763044   3.182299
H   13.566023   0.101327  -1.683293

