%chk=mol_0818.chk
# wB97XD/Def2SVP opt pop=full gfinput

C 5 H 10 O 1

1 2
C    2.344508   0.222761  -1.550407
O    4.213277   0.454044   0.376188
C    5.595800   2.673396   0.183247
C    4.129033   5.100428   0.302073
C    8.125804   2.486861   0.115972
C   10.010427   4.581131  -0.042405
H    1.609782  -1.709352  -1.495586
H    3.156750   0.551573  -3.426338
H    0.765641   1.514370  -1.207497
H    2.556006   4.920677   1.636238
H    3.360538   5.574598  -1.558174
H    5.273508   6.692201   0.955370
H    8.937119   0.596020   0.155657
H    9.155118   6.429321  -0.379363
H   11.319441   4.214618  -1.602110
H   11.106752   4.675560   1.708086

