%chk=mol_6208.chk
# wB97XD/Def2SVP opt pop=full gfinput

C 5 H 7 N 1 O 1

1 2
O    1.920434  -0.097642  -0.637915
C    4.565918  -0.031426  -0.104521
C    5.531965   2.707637   0.000000
C    4.575216   4.049910   2.348930
C    3.113891   6.119822   2.329919
C    8.260730   2.707637   0.000000
N   10.435823   2.707637   0.000000
H    1.389629  -1.856713  -0.550572
H    5.519342  -1.089049  -1.610538
H    4.899606  -1.028200   1.682650
H    4.835469   3.708436  -1.678285
H    5.122159   3.255299   4.167810
H    2.491642   6.993026   0.578748
H    2.490092   6.984314   4.086779

