%chk=mol_2140.chk
# wB97XD/Def2SVP opt pop=full gfinput

C 5 H 6 N 2

1 2
N    2.007418  -0.295837  -0.013984
N    4.560061  -0.028535   0.014834
C    5.433001   2.243766  -0.279566
C    3.996865   4.629754  -0.701769
C    5.091867   6.904851  -0.877664
C    8.165469   2.156612  -0.141862
C   10.433367   2.078755  -0.028006
H    1.589581  -2.151699  -0.371955
H    1.307105  -0.005348   1.766837
H    1.965258   4.442122  -0.881009
H    7.117824   7.175914  -0.717038
H    3.948621   8.578033  -1.197104
H   12.440426   1.984817   0.072679

