%chk=mol_7057.chk
# wB97XD/Def2SVP opt pop=full gfinput

C 6 H 13 N 1

1 2
C    2.200246   0.411998   0.226975
C    5.049575  -0.133188   0.002060
C    5.850422  -1.825740   2.228837
C    5.530869  -1.594570  -2.471478
C    6.452470   2.372816  -0.127046
C    7.094145   3.913793   2.189531
N    9.054453   2.585297   0.771783
H    1.530073   1.563900  -1.359015
H    1.777287   1.454881   1.965882
H    1.095115  -1.339060   0.250219
H    5.459513  -0.931635   4.053368
H    7.871862  -2.268182   2.162867
H    4.823412  -3.625081   2.200076
H    4.926081  -0.498359  -4.121871
H    4.505599  -3.393551  -2.498615
H    7.546716  -2.005925  -2.711266
H    6.002564   3.422748  -1.833639
H    6.683375   3.179200   4.052480
H    7.079746   5.955642   2.040337
H   10.063831   3.808327  -0.329587

