%chk=mol_1252.chk
# wB97XD/Def2SVP opt pop=full gfinput

C 6 H 9 N 1

1 2
C    1.889726   0.000000   0.000000
C    4.618491   0.000000   0.000000
C    6.867567   0.000000   0.000000
C    9.596332   0.000000   0.000000
N   10.575323   2.595123  -0.083072
C   11.161668   3.651045   2.398913
C   13.230181   2.787138   0.640390
H    1.145231   1.929203   0.022488
H    1.145079  -0.983943   1.659482
H    1.145023  -0.945052  -1.681913
H   10.280243  -0.999571  -1.681856
H   10.296305  -1.073175   1.632667
H   10.751956   2.537505   4.065803
H   10.844798   5.663056   2.598619
H   14.315016   4.218625  -0.342399
H   14.254922   1.074442   1.094454

