%chk=mol_4661.chk
# wB97XD/Def2SVP opt pop=full gfinput

C 5 H 10 N 2

1 2
C    1.808071  -0.336768   0.216922
C    0.999722  -0.220569   2.935992
C   -1.517790   0.905292   3.643184
N   -1.089786  -1.817047   3.813241
N    3.302825   1.939464  -0.323521
C    6.003112   1.454466  -0.644850
C    4.330100   1.956509  -2.887520
H    2.852655  -2.100374  -0.099815
H    0.151348  -0.378210  -1.029409
H    2.574506  -0.016478   4.228867
H   -2.772134   1.526672   2.149658
H   -1.666323   1.933738   5.405335
H   -0.812355  -2.347418   5.649053
H    6.718808  -0.442593  -0.362809
H    7.256133   2.952074  -0.028403
H    4.445108   3.793890  -3.782419
H    3.867419   0.402625  -4.136781

