%chk=mol_5218.chk
# wB97XD/Def2SVP opt pop=full gfinput

C 4 H 8 N 2 O 1

1 2
C    2.267426   0.948718  -1.077031
N    4.690395   1.156664   0.134813
C    6.852053   0.266130  -1.005939
O    6.938621  -0.547775  -3.172359
N    8.906034   0.434750   0.644434
C   10.806758  -1.501860   0.657700
C   11.368498   1.068035  -0.306098
H    1.595685  -0.996377  -0.885526
H    2.421873   1.425609  -3.081576
H    0.951402   2.237247  -0.143355
H    4.785467   1.323508   2.033194
H   10.518311  -3.025017  -0.676125
H   11.417990  -2.024426   2.534425
H   12.380843   2.387215   0.879819
H   11.479954   1.373302  -2.326461

