%chk=mol_0508.chk
# wB97XD/Def2SVP opt pop=full gfinput

C 4 H 8 N 2

1 2
C    2.992514  -0.720005   0.248423
N    4.886605   0.629147   0.980598
N    5.219613   2.680010  -0.510283
C    5.327780   5.154719   0.848827
C    7.316207   5.999843  -1.090391
C    7.884202   3.161947  -1.316402
H    2.501771  -2.452279   1.292667
H    1.797848  -0.245834  -1.395827
H    6.036050   5.045531   2.795377
H    3.560660   6.226553   0.833294
H    6.524090   6.848972  -2.805865
H    8.845600   7.187895  -0.376755
H    8.344463   2.497727  -3.218393
H    9.328501   2.480058   0.006916

