%chk=mol_5679.chk
# wB97XD/Def2SVP opt pop=full gfinput

C 5 H 5 N 1 O 1

1 2
N    1.889726   0.000000   0.000000
C    4.064820   0.000000   0.000000
C    6.793584   0.000000   0.000000
O    7.784311  -2.261209   1.193532
C    8.702038  -1.596214   3.665521
C    8.907678   1.195875   3.647190
C    7.824562   2.109237   1.562709
H    7.554029   0.070430  -1.921719
H   10.529025  -2.512202   3.961584
H    7.355135  -2.254859   5.090676
H    9.760908   2.302083   5.134235
H    7.668339   4.085323   1.077012

