%chk=mol_1788.chk
# wB97XD/Def2SVP opt pop=full gfinput

C 5 H 6 N 2

1 2
C    1.919603  -0.050002   0.077120
N    4.670590   0.020504   0.035754
C    5.594912   2.618556   0.000000
C    8.323677   2.618556   0.000000
C   10.572753   2.618556   0.000000
C   13.471820   2.611583   0.001398
N   15.666113   2.617970  -0.009430
H    1.281915  -2.017112   0.109529
H    1.110970   0.853060  -1.599691
H    1.171951   0.873356   1.770919
H    5.302326  -0.895220  -1.537047
H    4.904935   3.639764   1.665076
H    4.890744   3.608867  -1.677963

