%chk=mol_2905.chk
# wB97XD/Def2SVP opt pop=full gfinput

C 6 H 10 O 1

1 2
C    0.513231  -0.607282  -0.135229
C    3.255904  -0.046260  -0.498245
C    4.404819   2.217140  -0.438228
C    3.065022   4.709217  -0.175480
O    7.000699   2.271848  -0.895485
C    8.519036   3.980670   0.325090
C   10.939511   4.296991  -0.308498
H    0.296536  -2.116682   1.262318
H   -0.313298  -1.256328  -1.915389
H   -0.570962   1.014103   0.540273
H    4.436907  -1.701169  -0.822862
H    1.064577   4.588047  -0.680056
H    3.897541   6.118763  -1.441748
H    3.195716   5.403880   1.767574
H    7.639275   5.005242   1.856788
H   11.773541   3.213838  -1.836133
H   12.124181   5.637488   0.687860

