%chk=mol_6180.chk
# wB97XD/Def2SVP opt pop=full gfinput

C 5 H 11 N 1 O 1

1 2
O    4.462475   1.736016  -3.147849
C    4.382898   3.287481  -0.953650
C    5.951107   2.086730   1.139108
C    8.754194   2.215704   0.502705
C   10.091799   4.808427   0.730209
C   12.252172   3.286215   1.934248
N   10.353432   1.363418   2.661566
H    3.321175   2.485651  -4.378665
H    2.409136   3.437355  -0.351678
H    5.075162   5.172010  -1.449099
H    5.389272   0.105787   1.372357
H    5.563713   3.070087   2.922065
H    9.221429   1.219629  -1.259559
H    9.184900   6.149660   2.023972
H   10.536130   5.765630  -1.044754
H   13.662739   2.595860   0.582867
H   13.217897   4.194550   3.517895
H   10.960279  -0.458731   2.527339

