%chk=mol_7129.chk
# wB97XD/Def2SVP opt pop=full gfinput

C 6 H 9 N 1

1 2
C    1.911571  -0.222515   0.183625
C    4.770425   0.075702  -0.157206
C    5.668215  -1.515560  -2.406528
C    5.483267   2.862482  -0.289506
C    5.850781   4.146588  -2.453677
C    5.827670   4.169303   2.057912
N    6.105327   5.222239   3.961149
H    1.247616   0.772180   1.873550
H    1.404029  -2.218217   0.395633
H    0.875302   0.527460  -1.444979
H    5.695086  -0.730625   1.519472
H    4.674748  -1.017901  -4.152843
H    5.320127  -3.525511  -2.050240
H    7.700804  -1.280819  -2.721300
H    5.624222   3.281056  -4.297029
H    6.377996   6.133900  -2.443964

