%chk=mol_5623.chk
# wB97XD/Def2SVP opt pop=full gfinput

C 5 H 7 N 1 O 1

1 2
N    4.006900  -0.829155  -2.518929
C    4.645325  -0.104218   0.055577
C    5.633595   2.520668   0.016573
C    4.250391   4.727263  -0.160627
O    5.786001   6.780451  -0.114914
C    8.187938   5.907492   0.082373
C    8.203906   3.310403   0.170680
H    3.512547  -2.687058  -2.547993
H    5.573294  -0.663747  -3.626403
H    6.061826  -1.404539   0.822787
H    2.963336  -0.225539   1.255270
H    2.252724   5.121139  -0.331231
H    9.644973   7.337485   0.136741
H    9.861989   2.128512   0.328793

