%chk=mol_1004.chk
# wB97XD/Def2SVP opt pop=full gfinput

C 6 H 10

1 2
C    1.889726   0.000000   0.000000
C    4.618491   0.000000   0.000000
C    6.867567   0.000000   0.000000
C    9.596332   0.000000   0.000000
C   10.616103  -1.432204  -2.291350
C   10.614611   2.699965   0.033373
H    1.145193   1.929184   0.022015
H    1.145042  -0.983678   1.659633
H    1.145193  -0.945430  -1.681781
H   10.274441  -0.960038   1.707689
H   10.010220  -0.554238  -4.066313
H    9.942869  -3.389828  -2.300099
H   12.684598  -1.473627  -2.271224
H   10.012638   3.762010  -1.641340
H   12.684711   2.707241   0.083753
H    9.938334   3.728524   1.700395

