%chk=mol_6716.chk
# wB97XD/Def2SVP opt pop=full gfinput

C 3 H 1 N 1 O 2 S 1

1 2
O    2.006228   0.113610  -0.333499
S    4.675201  -0.055766   0.162516
O    5.993021  -1.272485   2.207314
C    5.835682  -1.651281  -2.528605
C    6.624038  -2.743467  -4.360373
C    5.785359   3.108599   0.146832
N    6.537791   5.178625   0.095412
H    7.314487  -3.723649  -5.976826

