%chk=mol_0603.chk
# wB97XD/Def2SVP opt pop=full gfinput

C 4 H 6 O 2

1 2
C    0.663993   2.400103   0.037813
O    2.286172   0.627748  -1.177904
C    1.937895  -1.835245  -0.147890
C   -0.805080  -2.447290   0.036528
C   -2.541379  -0.620397  -0.096811
O   -1.976143   1.896302  -0.299616
H    1.045038   4.262069  -0.777150
H    1.101143   2.507062   2.063241
H    2.846721  -1.954449   1.708105
H    2.879243  -3.174438  -1.411455
H   -1.365289  -4.408391   0.227939
H   -4.560476  -0.937701  -0.075740

