%chk=mol_1211.chk
# wB97XD/Def2SVP opt pop=full gfinput

C 5 H 10 N 2

1 2
C    6.237306  -1.779328   3.671190
C    6.352541  -1.506433   0.844613
C    6.031647  -3.501341  -0.694758
C    6.759305   1.132664  -0.165559
C    9.487294   1.958796   0.255756
N   11.299844   1.270425  -1.438006
N   10.162286   3.256452   2.215912
H    8.057433  -1.301983   4.526971
H    5.762531  -3.710137   4.244381
H    4.790361  -0.524607   4.453385
H    5.707596  -5.387817   0.048963
H    6.072446  -3.307928  -2.737533
H    5.471116   2.463126   0.759916
H    6.365599   1.223220  -2.198413
H   11.039251  -0.418820  -2.299664
H   13.062241   1.498232  -0.717548
H    8.626033   3.623229   3.338277

