%chk=mol_5515.chk
# wB97XD/Def2SVP opt pop=full gfinput

C 6 H 11 N 1

1 2
C    1.858924   0.011225  -0.000548
C    4.727906  -0.063117   0.018822
C    5.843581  -2.174867   1.663242
C    7.358424  -0.531958   3.489417
C    8.696274   1.502087   1.841406
C    5.868752   2.196334   1.423757
N    5.584198   1.611218   4.238240
H    1.096532  -1.670707  -0.932410
H    1.186049   1.679796  -1.022455
H    1.067280   0.095091   1.910249
H    5.441391  -0.173193  -1.923401
H    7.067425  -3.433991   0.569563
H    4.409166  -3.306189   2.634467
H    8.419675  -1.425213   5.011535
H    9.759075   0.834616   0.198894
H    9.840200   2.897574   2.860686
H    5.411533   4.113480   0.823278
H    6.387992   2.928036   5.396378

