%chk=mol_1183.chk
# wB97XD/Def2SVP opt pop=full gfinput

C 6 H 9 N 1

1 2
C    1.911382  -0.446051   0.287182
C    4.771369  -0.165597   0.248953
C    5.556664   2.567590  -0.261179
C    8.382220   2.841997  -0.285557
C    9.705388   3.632753  -2.299494
C   12.381731   3.883104  -2.250815
N   14.560831   4.090558  -2.220088
H    1.389327  -2.413577   0.653297
H    1.087726   0.109472  -1.527314
H    1.071324   0.727677   1.769086
H    5.555171  -1.413799  -1.208348
H    5.537011  -0.799146   2.067965
H    4.791249   3.805001   1.214338
H    4.743704   3.202198  -2.059272
H    9.362535   2.377068   1.465086
H    8.767119   4.114576  -4.056392

