%chk=mol_5443.chk
# wB97XD/Def2SVP opt pop=full gfinput

C 5 H 7 N 1 O 1

1 2
C    2.933762  -0.954520  -1.521702
O    5.411552  -0.527177  -0.568808
N    5.954489   2.059178  -0.779436
C    8.228491   2.447913   0.032579
C    9.354333   5.054299   0.064100
C   11.673368   5.141831  -1.458717
C   13.569689   5.222107  -2.703499
H    2.519288  -2.973333  -1.381617
H    2.821361  -0.386978  -3.507237
H    1.546325   0.091293  -0.400244
H    9.413576   0.890911   0.762353
H    9.783925   5.525389   2.032759
H    7.969164   6.421119  -0.638236
H   15.247388   5.295372  -3.815433

