%chk=mol_3564.chk
# wB97XD/Def2SVP opt pop=full gfinput

C 6 H 6 O 1

1 2
O    1.873399  -0.067161   0.257022
C    4.437984   0.056994   0.028289
C    5.692951   2.365767  -0.094637
C    8.320067   2.400651  -0.328812
C    9.668765   0.136211  -0.438473
C    8.393805  -2.167648  -0.314016
C    5.767274  -2.206765  -0.079652
H    1.212089   1.643438   0.306173
H    4.667869   4.139993  -0.011546
H    9.318164   4.193038  -0.426190
H   11.714336   0.167203  -0.621021
H    9.440353  -3.931632  -0.399053
H    4.763433  -3.994182   0.018368

