%chk=mol_2425.chk
# wB97XD/Def2SVP opt pop=full gfinput

C 5 H 10 O 2

1 2
C    1.598576   0.336995  -1.295936
C    4.309690   0.044957  -0.542106
C    4.919845   0.038248   2.246450
C    4.871525   2.682580   3.402584
O    6.999432   4.114954   2.593989
C    6.140797  -1.165167  -2.379411
O    6.026280   1.519869  -2.044249
H    1.375815   0.394329  -3.352714
H    0.800677   2.084349  -0.531769
H    0.483883  -1.252473  -0.582867
H    6.789370  -0.802453   2.554418
H    3.542821  -1.162824   3.222059
H    4.969375   2.548712   5.463690
H    3.154293   3.720531   2.907249
H    7.068861   3.966932   0.753245
H    5.424043  -1.931621  -4.137461
H    7.789565  -2.139208  -1.654606

