%chk=mol_3675.chk
# wB97XD/Def2SVP opt pop=full gfinput

C 5 H 10 O 2

1 2
O    4.301886  -0.672648  -2.588169
C    4.475798   0.196078  -0.036037
C    5.992492   2.652476  -0.018935
O    8.350473   2.260415  -1.355803
C    4.495413   5.040523  -0.854799
C    5.816898   6.485049   1.298412
C    6.252064   3.924281   2.611526
H    3.389753  -2.269901  -2.540472
H    5.438348  -1.260410   1.074857
H    2.565492   0.456577   0.713466
H    7.807045   1.405295  -2.902808
H    2.441469   4.898775  -0.626255
H    4.904690   5.742537  -2.755013
H    7.567238   7.426019   0.714279
H    4.640582   7.833482   2.328898
H    8.089370   3.719359   3.535167
H    4.766834   3.415529   3.963209

