%chk=mol_2439.chk
# wB97XD/Def2SVP opt pop=full gfinput

C 6 H 10 O 1

1 2
C    1.675923   0.120224   0.176859
C    4.534341   0.084868   0.028799
C    5.947157   1.922948   1.765855
O    7.598287  -0.078235   2.643746
C    5.907813  -1.972515   1.576617
C    7.070429  -4.025627   0.052893
C    9.493530  -3.960582  -0.670815
H    0.875586  -1.482093  -0.858144
H    0.926514   1.856202  -0.662160
H    1.006789   0.015911   2.132216
H    5.179985   0.228260  -1.938292
H    4.863720   2.730314   3.332097
H    6.997089   3.416549   0.798107
H    4.757650  -2.786023   3.101305
H    5.879637  -5.614905  -0.460659
H   10.731282  -2.400614  -0.170812
H   10.301747  -5.487424  -1.775549

