%chk=mol_6765.chk
# wB97XD/Def2SVP opt pop=full gfinput

C 6 H 11 N 1

1 2
C    1.641322  -0.209306   0.488986
C    4.423905   0.263673   0.008258
C    5.738153   2.211622   1.731896
N    7.985019   0.545356   1.779253
C    6.320510  -1.637901   1.185917
C    7.537532  -3.415831  -0.601235
C    9.533442  -4.797164   0.112760
H    0.986210  -1.846867  -0.591957
H    0.515782   1.426649  -0.090782
H    1.259502  -0.570660   2.490243
H    4.768327   0.655130  -2.004811
H    4.873226   2.465129   3.597661
H    6.059426   4.073645   0.894237
H    9.246184   0.926041   0.371671
H    5.609010  -2.592383   2.886878
H    6.759607  -3.623512  -2.489015
H   10.333495  -4.633646   1.997422
H   10.416926  -6.119500  -1.182269

