%chk=mol_3338.chk
# wB97XD/Def2SVP opt pop=full gfinput

C 5 H 10 O 2

1 2
C    0.956315   0.956712   0.665165
O    3.246701   0.833067  -0.741094
C    5.320902   2.230954   0.373958
C    6.708358   0.838698   2.431794
O    7.304566  -1.645592   1.588069
C    6.836727   3.733438  -1.518017
C    5.173088   5.075464   0.349883
H    1.257159   0.361183   2.620389
H   -0.406896  -0.324201  -0.210005
H    0.185136   2.872478   0.613878
H    5.530076   0.684175   4.123118
H    8.469960   1.783675   2.961749
H    5.965147  -2.103114   0.404628
H    6.240915   3.681186  -3.477512
H    8.865783   3.852679  -1.269329
H    6.081573   6.110184   1.865708
H    3.480913   5.968757  -0.372541

