%chk=mol_2993.chk
# wB97XD/Def2SVP opt pop=full gfinput

C 5 H 10 O 2

1 2
C    1.882829  -0.457125   0.525419
C    4.604450  -0.134152  -0.389095
C    5.239700  -2.127567  -2.390655
C    5.147028   2.573183  -1.295199
O    7.783895   2.832265  -1.794673
C    3.616029   3.312803  -3.621622
O    4.596589   3.723989  -5.687433
H    1.416973   0.954350   1.964862
H    1.618928  -2.327991   1.371185
H    0.524153  -0.275390  -1.023816
H    5.856072  -0.503291   1.225752
H    4.040745  -1.935741  -4.065954
H    4.959416  -4.032884  -1.631401
H    7.214029  -1.982228  -2.991531
H    4.681872   3.930517   0.196777
H    7.963400   2.915243  -3.635323
H    1.557550   3.483710  -3.347933

