%chk=mol_2851.chk
# wB97XD/Def2SVP opt pop=full gfinput

C 6 H 10 O 1

1 2
C    1.891124  -0.101478   0.005764
C    4.762110   0.000000   0.000000
C    5.672996   2.572238   0.000000
C    6.423746   4.692322   0.000000
C    7.334632   7.264561   0.000000
C    5.169970   9.167137  -0.055520
O    6.123412  11.687143   0.025285
H    1.242098  -2.065301   0.005669
H    1.105924   0.835202  -1.664943
H    1.112709   0.832783   1.680987
H    5.471777  -1.006884  -1.664490
H    5.478543  -1.009284   1.660124
H    8.576900   7.600441  -1.624144
H    8.507679   7.614009   1.672351
H    3.885201   8.907451   1.547742
H    4.059094   8.967752  -1.790610
H    6.920801  11.920752   1.666512

