%chk=mol_2779.chk
# wB97XD/Def2SVP opt pop=full gfinput

C 6 H 6 O 1

1 2
C    1.852121   0.053007  -0.012453
C    4.688467  -0.001909  -0.005178
C    5.957248  -2.196448   0.008806
C    6.068307   2.312533  -0.007238
C    7.230924   4.263071  -0.006066
C    8.644458   6.586508  -0.002740
O    7.573493   8.633875  -0.001247
H    1.129470   1.992130   0.037511
H    1.098592  -0.936321   1.641964
H    1.111442  -0.847656  -1.722278
H    4.968771  -3.994182   0.012038
H    8.008829  -2.261719   0.015779
H   10.715408   6.381001  -0.001342

