%chk=mol_0608.chk
# wB97XD/Def2SVP opt pop=full gfinput

C 5 H 10 O 1

1 2
C    1.836493  -0.028081   0.037870
C    4.699598   0.016573   0.041914
C    5.970155   1.980735   1.800115
C    8.011475  -0.021448   2.355449
C    6.042116  -2.058951   1.634878
O    6.968970  -4.219267   0.270533
H    1.137237  -1.656742  -1.028389
H    1.084117   1.682839  -0.848166
H    1.070700  -0.143865   1.956622
H    5.429089   0.120035  -1.901065
H    4.848792   2.497046   3.464322
H    6.638494   3.705337   0.881822
H    9.645011   0.068181   1.085043
H    8.682876  -0.077535   4.308160
H    4.928992  -2.683336   3.270284
H    7.946865  -3.539174  -1.128242

