%chk=mol_0456.chk
# wB97XD/Def2SVP opt pop=full gfinput

C 5 H 7 N 1

1 2
C    2.152228  -0.057807  -0.160721
N    4.901590  -0.016970   0.036793
C    6.166025  -1.289228  -2.049408
C    6.119651   1.565052  -1.875799
C    8.401477   2.856737  -1.200127
C   10.310705   3.949169  -0.639842
H    1.351097   1.374473   1.099027
H    1.434982  -1.899779   0.451153
H    1.424457   0.301959  -2.067682
H    5.024045  -2.197733  -3.483880
H    7.891062  -2.279784  -1.564618
H    4.908885   2.558141  -3.201007
H   11.999780   4.914214  -0.125950

