%chk=mol_1535.chk
# wB97XD/Def2SVP opt pop=full gfinput

C 5 H 14 N 2

1 2
C    1.587124  -0.673404  -0.519713
C    4.419238  -1.234010  -0.666733
N    4.996096  -2.465374  -3.078553
C    5.956757   1.213922  -0.371671
C    8.836907   0.864512  -0.425547
C    9.896552  -0.884581   1.618210
N    9.311550   0.030387   4.152730
H    1.110687   0.193961   1.297996
H    0.476797  -2.412141  -0.692452
H    0.987458   0.620926  -2.019834
H    4.887720  -2.544875   0.864814
H    4.512383  -1.294670  -4.530108
H    3.895085  -4.033564  -3.275368
H    5.418242   2.144556   1.401156
H    5.444320   2.539244  -1.884095
H    9.720392   2.732355  -0.242376
H    9.416033   0.142466  -2.280597
H   11.954067  -0.997341   1.406391
H    9.165304  -2.806243   1.392464
H   10.084523   1.777023   4.395352
H   10.157694  -1.115997   5.447325

