%chk=mol_0161.chk
# wB97XD/Def2SVP opt pop=full gfinput

C 5 H 10

1 2
C    1.650940   0.056635  -0.472753
C    4.438419  -0.000170   0.091141
C    5.077807  -0.052931   2.862009
C    6.142233  -1.424324  -1.707405
C    6.192009   1.416406  -1.664792
H    1.271824   0.097321  -2.507874
H    0.780570   1.735883   0.367344
H    0.723330  -1.618985   0.311125
H    7.121981  -0.094845   3.184963
H    4.260161  -1.729515   3.757418
H    4.321142   1.624994   3.807023
H    5.306124  -2.342958  -3.338050
H    7.763259  -2.421760  -0.947150
H    7.846559   2.333112  -0.875850
H    5.389594   2.412292  -3.266505

