%chk=mol_2016.chk
# wB97XD/Def2SVP opt pop=full gfinput

C 6 H 13 N 1

1 2
N    2.151586   3.785405   0.644264
C    4.764302   3.684267  -0.223214
C    6.392093   2.226041   1.662260
C    9.112864   2.085011   0.732968
C   10.716203   4.541012   0.864587
C   12.979187   2.861669   1.601127
C   11.043957   0.931106   2.614209
H    1.111877   4.845636  -0.583906
H    2.066302   4.688977   2.342486
H    5.484477   5.610502  -0.461792
H    4.829554   2.768713  -2.078869
H    5.647749   0.304435   1.890747
H    6.310646   3.134054   3.524434
H    9.230008   1.172329  -1.131322
H   10.144446   5.861477   2.355562
H   10.914454   5.577867  -0.910886
H   14.071336   2.174886  -0.019502
H   14.273310   3.657093   2.999827
H   11.519487  -1.055110   2.306014
H   10.572451   1.206892   4.612991

