%chk=mol_1616.chk
# wB97XD/Def2SVP opt pop=full gfinput

C 6 H 11 N 1

1 2
C    2.102245   0.028988   0.042727
N    4.851362   0.010393  -0.070676
C    5.981342   1.904183  -1.894413
C    5.270295   0.058393  -4.069884
C    5.979320  -1.833998  -1.944698
C    8.830256  -1.423380  -1.634254
C    8.832183   1.486175  -1.597329
H    1.511138   1.427121   1.448834
H    1.415008  -1.809451   0.696818
H    1.103335   0.497168  -1.702757
H    5.225924   3.820403  -1.899231
H    6.481081   0.079501  -5.750210
H    3.316828   0.045221  -4.740718
H    5.226907  -3.749368  -1.996439
H    9.555702  -2.221713   0.132640
H    9.916621  -2.184335  -3.221416
H    9.915714   2.284698  -3.167483
H    9.559652   2.239458   0.186327

