%chk=mol_5385.chk
# wB97XD/Def2SVP opt pop=full gfinput

C 4 H 8 N 2 O 1

1 2
C    3.863451  -0.570603  -0.422486
O    6.188777   0.774278  -0.356402
C    6.141346   3.380248  -0.379022
C    4.011737   4.764019  -0.421617
N    8.480845   4.535929  -0.359350
C   10.840622   3.498904  -0.262048
N   11.476779   1.157495  -0.141446
H    4.299958  -2.591514  -0.437302
H    2.803390  -0.139443  -2.146105
H    2.733942  -0.176576   1.265191
H    2.139170   3.939607  -0.435128
H    4.073134   6.813483  -0.436886
H    8.413533   6.447009  -0.416061
H   12.338797   4.949231  -0.291528
H    9.815653   0.137893  -0.133679

