%chk=mol_5675.chk
# wB97XD/Def2SVP opt pop=full gfinput

C 4 H 10 N 2 O 1

1 2
N    4.451533  -0.916423  -2.731750
C    4.334314   0.210610  -0.208002
C    6.583504   1.968925   0.316813
O    6.479436   4.285483  -1.178055
C    5.713700   5.716610   1.034984
C    6.400861   3.510034   2.793450
N    8.940918   3.921957   3.858632
H    2.982177  -2.135485  -2.968552
H    6.066323  -1.943697  -2.927261
H    4.313375  -1.309939   1.197047
H    2.549203   1.243553  -0.026607
H    8.393275   0.993278   0.035621
H    6.797232   7.465987   1.239131
H    3.696796   6.172771   0.950476
H    4.956770   2.948653   4.156623
H   10.212155   4.582737   2.560806
H    9.741444   2.338895   4.607719

