%chk=mol_5005.chk
# wB97XD/Def2SVP opt pop=full gfinput

C 4 H 6 N 2 O 1

1 2
C    1.915256   0.132167  -0.116294
N    4.473095  -0.104653   0.814925
O    5.945570   2.058176   0.303225
C    8.324640   1.082435  -0.157679
C    8.573064  -1.417370  -0.200708
C    5.971421  -2.169198   0.313052
N    5.317406  -4.513592   0.248102
H    1.129943   1.982190   0.381800
H    0.698310  -1.311432   0.730436
H    1.852517  -0.072395  -2.176190
H    9.759075   2.491736  -0.466725
H   10.166121  -2.616893  -0.543977
H    3.446747  -4.657230   0.704225

