%chk=mol_6684.chk
# wB97XD/Def2SVP opt pop=full gfinput

C 5 H 6 O 1 S 1

1 2
O    4.336978  -1.118415  -2.496347
C    4.410980  -0.142750   0.003912
C    5.344486   2.519534   0.017329
C    3.815263   4.639089   0.030727
S    5.492357   7.401585   0.063041
C    8.301510   5.811021   0.025946
C    7.960282   3.231734  -0.000680
H    3.700178  -2.834835  -2.374101
H    5.656139  -1.344937   1.139486
H    2.505966  -0.253318   0.806762
H    1.772072   4.701847   0.017669
H   10.066609   6.840941   0.015741
H    9.516585   1.900951  -0.044673

