%chk=mol_4869.chk
# wB97XD/Def2SVP opt pop=full gfinput

C 4 H 8 N 2 O 1

1 2
C    1.770938   0.046053   0.221306
C    4.568621   0.447374   0.003761
O    6.108275  -1.611540  -0.183039
C    5.179040  -4.082394  -0.353983
C    6.438883  -6.029284   0.632435
N    5.465787   2.738931  -0.022355
N    8.014952   2.947217  -0.161723
H    0.833785   1.843069   0.636535
H    1.346562  -1.261411   1.762982
H    1.017863  -0.670569  -1.563578
H    3.448826  -4.272368  -1.419940
H    8.202526  -5.740950   1.639035
H    5.736434  -7.945542   0.448035
H    8.524592   4.663220  -0.876436
H    8.824926   1.565544  -1.240927

