%chk=mol_5129.chk
# wB97XD/Def2SVP opt pop=full gfinput

C 5 H 7 N 1 O 1

1 2
C    1.799832  -0.130788  -0.238162
N    4.504540   0.057278   0.201237
C    5.934402  -2.279804   0.076855
C    5.815386   2.334605   0.263390
O    8.122383   2.492908   0.417573
C    4.396297   4.673255   0.121604
C    3.254354   6.634545   0.002797
H    0.801660   1.597026   0.284196
H    1.036420  -1.688319   0.887037
H    1.486402  -0.511530  -2.245845
H    5.093719  -3.655675   1.370581
H    7.914287  -2.004981   0.598174
H    5.846435  -3.005590  -1.857072
H    2.265460   8.383637  -0.099664

