%chk=mol_2967.chk
# wB97XD/Def2SVP opt pop=full gfinput

C 5 H 6 O 2

1 2
C    2.081118   0.031502  -1.260183
C    3.866966  -0.829401   0.313392
C    6.449560   0.319383   0.589065
C    8.524649  -1.581833   0.045429
O    8.253209  -3.842909  -0.378096
C   11.187991  -0.568656   0.101100
O   11.620418   1.640925   0.602161
H    0.253091  -0.896127  -1.373585
H    2.386214   1.662373  -2.467056
H    3.455307  -2.477469   1.476008
H    6.679464   0.993070   2.532592
H    6.676195   1.920888  -0.703602
H   12.653682  -1.980301  -0.332063

