%chk=mol_0311.chk
# wB97XD/Def2SVP opt pop=full gfinput

C 5 H 11 N 1

1 2
C    5.106380  -2.613756  -1.359563
C    3.792661  -0.224235  -0.449245
C    5.646766   1.829236   0.284820
C    7.113288   1.380105   2.683600
C    6.872991   3.365186  -1.797035
N    4.859733   4.441877  -0.260102
H    3.706981  -4.020940  -1.946286
H    6.263837  -3.455345   0.133547
H    6.339842  -2.219275  -2.973994
H    2.587772  -0.676295   1.173898
H    2.528378   0.441591  -1.952314
H    8.284465   3.008916   3.199854
H    8.374454  -0.245060   2.472688
H    5.824986   1.005486   4.259518
H    6.386953   2.955796  -3.744606
H    8.754156   4.122929  -1.514672
H    5.565943   5.675150   1.046493

