%chk=mol_2496.chk
# wB97XD/Def2SVP opt pop=full gfinput

C 5 H 10 O 2

1 2
C    2.020250  -0.072981  -0.002872
C    4.876797  -0.065611   0.162403
C    5.935006   2.080929   1.716797
O    8.389401   1.178490   2.382982
C    8.036174  -1.488972   2.695373
C   10.282434  -2.890355   1.601713
O    5.755728  -2.270619   1.457735
H    1.368748  -1.708275  -1.090958
H    1.315949   1.648238  -0.906086
H    1.166849  -0.237614   1.875667
H    5.715269  -0.079954  -1.729458
H    4.870202   2.398648   3.464265
H    6.075526   3.856818   0.670116
H    7.846880  -1.900365   4.715698
H   10.486449  -2.481418  -0.418234
H   10.044405  -4.935039   1.798868
H   12.036762  -2.311154   2.530532

