%chk=mol_4312.chk
# wB97XD/Def2SVP opt pop=full gfinput

C 5 H 9 N 1 O 1

1 2
C    1.602998   0.221778  -0.023697
C    4.412133  -0.013927  -0.232096
C    6.006854   1.889480   0.280265
C    8.822243   1.750189   0.130656
C   10.081651  -0.486567  -1.135499
N   10.077569   3.605408   1.164015
O   12.690890   3.248213   0.979351
H    0.883749  -1.148103   1.347129
H    0.728773  -0.169414  -1.855446
H    1.016767   2.109728   0.581620
H    5.098916  -1.860303  -0.802945
H    5.292575   3.708588   0.911850
H    8.826703  -1.420394  -2.480454
H   10.666182  -1.841103   0.311200
H   11.741889   0.125950  -2.203402
H   13.352181   4.748447   1.820109

