%chk=mol_0493.chk
# wB97XD/Def2SVP opt pop=full gfinput

C 6 H 8

1 2
C    1.818181   0.082316  -0.006916
C    4.620796   0.063230  -0.000094
C    6.207845   2.048312  -0.002154
C    8.778232   1.145514   0.006803
C    8.781330  -1.388854   0.014664
C    6.112414  -2.356073   0.011206
H    1.073648   2.011992  -0.007011
H    1.087405  -0.883882   1.669025
H    1.095739  -0.881179  -1.688055
H    5.689021   4.020751  -0.009581
H   10.417550   2.356696   0.007011
H   10.440340  -2.574997   0.022374
H    5.738153  -3.484882  -1.679551
H    5.729990  -3.473978   1.707349

