%chk=mol_4902.chk
# wB97XD/Def2SVP opt pop=full gfinput

C 4 H 6 N 2 O 1

1 2
C    4.159741  -1.338323   3.125701
C    3.850393  -0.688711   0.385523
O    2.650284  -1.961933  -1.128129
C    5.105303   1.678379  -0.551895
N    6.346475   3.115667   0.984434
N    7.341888   5.186202  -0.292246
C    8.559949   6.645335   1.236164
H    3.358459   0.158831   4.301092
H    6.159449  -1.611502   3.563683
H    3.152970  -3.098622   3.528572
H    4.874587   2.056154  -2.588906
H    9.465638   8.373924   0.516028
H    8.752380   6.253727   3.275084

