%chk=mol_5348.chk
# wB97XD/Def2SVP opt pop=full gfinput

C 5 H 8 N 2

1 2
C    1.928352  -0.031729   1.182723
C    4.538517  -0.022828   0.131128
C    5.108931   1.459039  -2.215912
N    7.722668   2.234242  -2.752500
C    8.947721  -0.016875  -3.167653
N    7.685252  -2.117646  -2.950958
C    5.111955  -1.431902  -2.274021
H    1.613221   1.667154   2.320508
H    1.656402  -1.681781   2.400481
H    0.488570  -0.085983  -0.303736
H    5.944965  -0.070052   1.618947
H    3.639991   2.444361  -3.238745
H    8.121476   3.656601  -3.969578
H   10.939095   0.119582  -3.761405
H    3.603027  -2.521235  -3.117632

