%chk=mol_0106.chk
# wB97XD/Def2SVP opt pop=full gfinput

C 3 H 7 N 1 O 1

1 2
N    2.056060   0.328472   0.350733
C    4.685047  -0.111116  -0.351017
C    6.091154   2.325572  -0.189067
C    7.236820   3.205883   2.260679
O    8.742704   2.069798   0.311276
H    1.110233  -1.349170   0.295289
H    1.219119   1.447190  -0.975136
H    4.784333  -0.858692  -2.277366
H    5.498479  -1.529488   0.918539
H    5.515109   3.711422  -1.575918
H    6.882401   2.114244   3.955027
H    7.439322   5.219386   2.564547

