%chk=mol_7097.chk
# wB97XD/Def2SVP opt pop=full gfinput

C 7 H 8

1 2
C    2.003280   0.004403   0.531750
C    4.490046   0.003420   0.087211
C    6.109749  -2.307677  -0.409938
C    8.703833  -1.260315  -0.946413
C    8.740588   1.267685  -0.755002
C    6.229237   2.134011  -0.092615
C    5.679950   4.572155   0.307194
H    0.951685   1.734655   0.841117
H    0.947320  -1.752249   0.584965
H    5.413385  -3.371593  -2.041131
H    6.172771  -3.539665   1.252435
H   10.314768  -2.422024  -1.418183
H   10.361878   2.473557  -1.045415
H    3.796309   5.189263   0.822673
H    7.113799   6.028566   0.140520

