%chk=mol_4752.chk
# wB97XD/Def2SVP opt pop=full gfinput

C 4 H 5 N 1 O 2

1 2
C    1.482811   0.369423  -0.083053
C    3.973168  -0.070903  -0.115746
N    5.115129  -2.398592  -0.224178
C    4.050741  -4.742816  -0.321480
O    5.293180  -6.691671  -0.413926
C    5.718122   2.152115  -0.027552
O    8.021604   1.891502  -0.051457
H    0.724445   2.275400   0.004781
H    0.086871  -1.127921  -0.141352
H    7.042083  -2.390163  -0.234175
H    1.973120  -4.768346  -0.311484
H    4.815608   4.028386   0.059734

