%chk=mol_3877.chk
# wB97XD/Def2SVP opt pop=full gfinput

C 4 H 6 N 2 O 1

1 2
C    1.649410  -1.971343   1.726057
C    2.166968  -0.581374  -0.707967
C    1.727682   2.156820  -1.048231
O   -0.686991   2.981289  -0.178863
C   -2.473557   1.181608   0.048169
N   -2.192404  -1.234709  -0.101403
N    0.072679  -2.331998  -0.530541
H    2.837386  -3.567463   2.206425
H    0.870351  -0.966727   3.330321
H    3.773065  -1.222691  -1.807353
H    3.169373   3.232924  -0.027514
H    1.876441   2.665874  -3.048865
H   -4.322805   2.039355   0.453440

