%chk=mol_4347.chk
# wB97XD/Def2SVP opt pop=full gfinput

C 5 H 11 N 1 O 1

1 2
C    2.598884  -1.551522   0.237709
C    5.407753  -0.950721   0.337373
C    5.895719   1.877859  -0.016762
C    8.705458   2.523843  -0.074436
C    9.940224   2.005718   2.433098
N   11.772861   0.396899   2.611016
O   12.562068   0.275125   5.128679
H    2.286040  -3.569390   0.571869
H    1.805690  -1.076936  -1.612144
H    1.560574  -0.493181   1.681630
H    6.386726  -2.028602  -1.134686
H    6.157635  -1.580057   2.161601
H    4.962761   2.933290   1.503750
H    5.040939   2.502149  -1.799926
H    8.932547   4.546227  -0.458145
H    9.674000   1.474497  -1.571024
H    9.219936   3.049999   4.090709
H   13.927565  -0.962041   5.053411

