%chk=mol_0963.chk
# wB97XD/Def2SVP opt pop=full gfinput

C 4 H 5 N 1 O 1

1 2
C    1.930412  -0.033127  -0.138366
C    4.718930   0.237123   0.073321
O    6.108370  -0.940460  -1.925990
C    6.203083   1.776116  -1.813230
C    8.617510   2.772304  -1.111518
N   10.551418   3.628180  -0.526893
H    0.989574   1.330726   1.098838
H    1.352250  -1.932925   0.438681
H    1.262696   0.284668  -2.070800
H    5.410966   0.011282   1.984628
H    5.182858   2.802388  -3.258852

