%chk=mol_5142.chk
# wB97XD/Def2SVP opt pop=full gfinput

C 4 H 10 N 2 O 1

1 2
C    1.952881  -0.062909  -0.119450
N    4.680379   0.320082  -0.108962
C    6.217842  -1.987047   0.006765
C    7.426850  -2.583955  -2.557971
O    9.358528  -0.816173  -3.183470
C    5.679987   2.701874   0.018179
N    8.012590   3.362465   0.118580
H    0.913890   1.719896  -0.276372
H    1.354650  -0.989631   1.631438
H    1.401081  -1.251906  -1.720180
H    5.036649  -3.593919   0.570319
H    7.675784  -1.778648   1.462913
H    6.024409  -2.590852  -4.078860
H    8.309428  -4.453045  -2.486974
H    8.530299   0.822314  -3.403095
H    4.237635   4.209157  -0.016554
H    9.169159   1.810339   0.171436

