%chk=mol_4615.chk
# wB97XD/Def2SVP opt pop=full gfinput

C 4 H 9 N 1 O 2

1 2
C    2.477847  -0.120168   2.213587
C    3.925282   0.262218  -0.231832
C    6.057914   2.128342   0.113856
O    5.110046   4.506921   0.342872
C    6.662210   6.623188   1.002916
N    8.374113   1.321561   0.138800
O   10.200780   3.201461   0.369064
H    1.011381  -1.557342   1.964918
H    1.560970   1.633479   2.819717
H    3.737387  -0.730341   3.737784
H    2.666063   0.949720  -1.724110
H    4.707818  -1.545059  -0.870257
H    5.407300   8.226639   1.359847
H    7.898054   7.124835  -0.574892
H    7.717396   6.253274   2.740991
H   11.771009   2.238985   0.288145

