%chk=mol_7058.chk
# wB97XD/Def2SVP opt pop=full gfinput

C 6 H 9 N 1

1 2
C    2.169217   0.281834   0.137326
C    4.996644  -0.214805  -0.091633
C    5.587712  -1.532284  -2.473481
C    6.064528  -2.624263  -4.407427
C    6.462863   2.219994  -0.250011
C    7.022941   3.704789   2.123599
N    9.025880   2.364406   0.794535
H    1.742705   1.305895   1.884870
H    1.104035  -1.493432   0.156828
H    1.462761   1.422642  -1.441540
H    5.621803  -1.357957   1.520020
H    6.499826  -3.595658  -6.115588
H    6.092534   3.296948  -1.956906
H    6.479512   2.923293   3.935430
H    7.056672   5.747886   2.018738
H   10.110451   3.566726  -0.257078

