%chk=mol_1913.chk
# wB97XD/Def2SVP opt pop=full gfinput

C 6 H 11 N 1

1 2
N    1.985006   0.250710   0.284876
C    4.686332  -0.124892  -0.077309
C    5.305822  -2.838048  -0.914609
C    5.098746  -2.808568  -3.804888
C    5.943510  -0.192242  -4.512722
C    4.113688   1.971891  -4.627769
C    5.607082   1.485627  -2.240686
H    1.666342   2.088336   0.761579
H    1.382297  -0.816003   1.767952
H    5.689493   0.334935   1.673730
H    4.101745  -4.278624  -0.045561
H    7.265563  -3.268792  -0.387394
H    6.300460  -4.262088  -4.653356
H    3.147018  -3.140290  -4.410394
H    7.703034  -0.109906  -5.544135
H    4.627637   3.602272  -5.756106
H    2.107668   1.556851  -4.647271
H    7.130523   2.750610  -1.737414

