%chk=mol_6693.chk
# wB97XD/Def2SVP opt pop=full gfinput

C 4 H 5 N 1 O 1 S 1

1 2
O    2.719448  -0.694947  -1.704892
C    4.810128  -0.141692  -0.092540
C    5.482946   2.599186  -0.087627
C    3.966138   4.590013  -0.846427
S    5.533836   7.400564  -0.494352
C    8.096041   5.778839   0.641486
N    7.859466   3.309496   0.781364
H    2.532554  -2.521745  -1.689434
H    6.430265  -1.256214  -0.737957
H    4.319857  -0.736899   1.827535
H    2.061937   4.508187  -1.581852
H    9.805203   6.746304   1.210861

