%chk=mol_6965.chk
# wB97XD/Def2SVP opt pop=full gfinput

C 5 H 8 N 2

1 2
C    5.912065  -2.312987  -0.994657
C    4.629149   0.008277   0.117635
C    6.357946   2.304672   0.112798
C    5.178379   4.477233   1.465917
N    4.774374   6.413863   0.033486
N    5.640757   5.815405  -2.449236
C    6.532368   3.540837  -2.413029
H    4.636198  -3.939342  -0.915289
H    7.624214  -2.791352   0.063249
H    6.432647  -2.008949  -2.972823
H    4.043390  -0.421447   2.059178
H    2.894210   0.393554  -0.951458
H    8.231421   1.906072   0.883485
H    4.729890   4.396089   3.490022
H    7.364263   2.581120  -4.054181

