%chk=mol_6875.chk
# wB97XD/Def2SVP opt pop=full gfinput

C 7 H 10

1 2
C    1.815554  -0.027666  -0.842723
C    4.244930  -0.041914   0.585267
C    6.548355   1.409962  -0.287182
C    6.991174   2.264478  -2.986693
C    7.260952  -0.140199  -4.489422
C    6.974847  -2.142364  -2.956817
C    6.545256  -1.471775  -0.293739
H    0.731551   1.666738  -0.360768
H    0.683457  -1.676565  -0.315868
H    2.056457  -0.057637  -2.893586
H    3.876735  -0.051476   2.605195
H    7.685875   2.395908   1.093981
H    8.728967   3.379303  -3.115195
H    5.408774   3.402924  -3.676103
H    7.597512  -0.215372  -6.499940
H    7.063173  -4.087818  -3.584395
H    7.702202  -2.437614   1.091940

