%chk=mol_2644.chk
# wB97XD/Def2SVP opt pop=full gfinput

C 6 H 12 O 1

1 2
C    1.038178   2.208580   0.849791
C    3.274177   0.940819  -0.434278
C    5.759658   2.307242   0.013568
C    6.994727   1.804311   2.542248
O    5.753592   3.203842   4.464535
C    7.500531   2.601359  -2.249492
C    6.154536   4.870523  -1.220895
H   -0.706531   1.183989   0.414152
H    0.809332   4.161347   0.203712
H    1.252000   2.238362   2.905435
H    2.874538   0.832349  -2.464732
H    3.431799  -1.015066   0.228336
H    8.991280   2.352766   2.548069
H    6.898672  -0.204544   3.025036
H    5.726569   4.954144   3.911355
H    6.898105   1.877670  -4.071377
H    9.529737   2.483176  -1.969000
H    7.278261   6.279163  -0.246534
H    4.634837   5.665626  -2.341711

