%chk=mol_6515.chk
# wB97XD/Def2SVP opt pop=full gfinput

C 5 H 5 N 1 S 1

1 2
C    5.058910  -2.166647   0.719646
C    4.181945   0.173930   0.307269
C    5.665154   2.425350   0.128312
C    4.607228   4.773070  -0.299144
S    6.962885   6.991269  -0.392704
N    9.316483   4.983000   0.106770
C    8.347091   2.673150   0.341417
H    3.761198  -3.753242   0.822201
H    7.049736  -2.583822   0.964913
H    2.145066   0.379325   0.087834
H    2.650587   5.296997  -0.553557
H    9.678403   1.157136   0.677183

