%chk=mol_0887.chk
# wB97XD/Def2SVP opt pop=full gfinput

C 5 H 2 O 1

1 2
O    1.835548  -0.000567   0.000000
C    4.147212  -0.000472   0.000000
C    5.524633  -2.359191   0.000000
C    6.665782  -4.322786   0.000000
C    5.524501   2.358341   0.000000
C    6.665291   4.322087   0.000000
H    7.665145  -6.070707   0.000000
H    7.663917   6.070499   0.000000

