%chk=mol_7004.chk
# wB97XD/Def2SVP opt pop=full gfinput

C 5 H 8 N 2

1 2
C    4.499797  -0.921204  -2.653591
C    4.627656   0.061284   0.035773
C    5.666457   2.685981   0.084754
N    4.287429   4.709764   0.214994
N    5.935705   6.846327   0.186478
C    8.231552   6.030570   0.022223
C    8.418711   3.233662  -0.079520
H    3.699800  -2.827862  -2.687361
H    6.380585  -0.995772  -3.513114
H    3.318076   0.299862  -3.835086
H    5.836684  -1.156871   1.190641
H    2.736758   0.068219   0.876493
H    9.913673   7.242905  -0.040610
H    9.235923   2.609617  -1.864517
H    9.453809   2.494287   1.541128

