%chk=mol_3951.chk
# wB97XD/Def2SVP opt pop=full gfinput

C 5 H 9 N 1 O 1

1 2
C    1.693100   0.159890   0.243680
C    4.540086  -0.104370   0.233740
C    6.073353   2.017018   1.538067
C    7.321782  -0.176330   2.984803
O    9.263116  -0.527441   4.129751
N    5.424591  -1.782484   2.278424
C    5.844262  -4.451477   2.034555
H    0.795424  -1.571175  -0.449944
H    1.107172   1.709767  -0.995281
H    0.954690   0.548021   2.138603
H    5.296128  -0.663577  -1.615054
H    5.019075   3.310233   2.757299
H    7.349334   3.066288   0.302035
H    4.170059  -5.332845   1.208404
H    6.194295  -5.240721   3.911846
H    7.500814  -4.795539   0.847164

