%chk=mol_7146.chk
# wB97XD/Def2SVP opt pop=full gfinput

C 6 H 11 N 1

1 2
C    1.889726   0.000000   0.000000
C    4.618491   0.000000   0.000000
C    6.867567   0.000000   0.000000
C    9.596332   0.000000   0.000000
C   10.594844  -1.542281  -2.233656
C   10.605880   2.737835  -0.038985
N   13.359683   2.889618   0.208342
H    1.145212   1.929184   0.021883
H    1.145061  -0.983565   1.659709
H    1.145212  -0.945543  -1.681724
H   10.254240  -0.912322   1.743820
H   10.049167  -0.693114  -4.043258
H    9.838179  -3.471049  -2.198470
H   12.658859  -1.684615  -2.189758
H    9.753311   3.823653   1.508039
H   10.049469   3.675121  -1.802364
H   13.891434   2.162829   1.911609
H   13.887730   4.742513   0.229148

