%chk=mol_0035.chk
# wB97XD/Def2SVP opt pop=full gfinput

C 3 H 8 O 1

1 2
C    1.872284  -0.053895  -0.009940
C    4.738280   0.044711   0.019275
C    5.713851   2.749967   0.030538
O    8.399757   2.751536   0.023376
H    1.221954  -2.017509  -0.017253
H    1.114239   0.878798  -1.694858
H    1.080375   0.878023   1.659198
H    5.494794  -0.957808  -1.627583
H    5.457491  -0.962116   1.679740
H    5.061480   3.781474   1.702624
H    5.072403   3.773065  -1.650827
H    8.956621   1.868788   1.536291

