%chk=mol_1633.chk
# wB97XD/Def2SVP opt pop=full gfinput

C 6 H 11 N 1

1 2
C    1.688773   0.068578   0.622740
N    4.349148   0.347180  -0.043256
C    5.646162   2.043153   1.759165
C    7.710574   0.016214   2.143781
C    5.833207  -1.830464   0.886395
C   10.224685   0.411734   0.919144
C   10.495425   0.989253  -1.528221
H    0.828078  -1.425080  -0.522831
H    0.671136   1.822584   0.207964
H    1.376571  -0.395614   2.618423
H    4.606226   2.483025   3.500056
H    6.265293   3.836257   0.931427
H    8.005088  -0.421787   4.151690
H    6.596788  -3.031631  -0.616504
H    4.873849  -3.066459   2.249417
H   11.887417   0.211234   2.106799
H    8.886588   1.207611  -2.785078
H   12.359621   1.259994  -2.340464

