%chk=mol_4863.chk
# wB97XD/Def2SVP opt pop=full gfinput

C 5 H 13 N 1 O 1

1 2
C    3.702087   5.837345  -3.431818
C    5.313305   3.667713  -2.483459
O    7.432047   4.685179  -1.164525
C    8.993471   2.721338  -0.144451
C   11.248368   3.907198   1.240322
N   10.390092   5.344939   3.457027
C   12.480375   6.680314   4.642698
H    2.066113   5.135463  -4.481391
H    4.803703   7.081616  -4.663958
H    3.034296   6.991836  -1.850269
H    5.973557   2.529890  -4.082848
H    4.200786   2.470968  -1.212108
H    9.690742   1.536801  -1.692987
H    7.885544   1.546117   1.151486
H   12.245935   5.169611  -0.066802
H   12.544097   2.407435   1.838477
H    9.064676   6.613513   2.844472
H   13.367167   8.022511   3.342302
H   13.914601   5.356145   5.328839
H   11.784181   7.742321   6.274704

