%chk=mol_5630.chk
# wB97XD/Def2SVP opt pop=full gfinput

C 5 H 11 N 1 O 1

1 2
N    4.080108  -0.804249  -2.609939
C    4.476516   0.071186  -0.027363
C    6.051791   2.475390  -0.029612
C    4.770633   4.917710  -1.018714
C    6.061920   6.366847   1.160783
O    8.384715   7.655923   0.559737
C    6.317619   3.819420   2.558330
H    2.991833  -2.393943  -2.582519
H    5.763551  -1.331860  -3.382931
H    5.436194  -1.408205   1.057151
H    2.636999   0.400698   0.862093
H    7.911471   2.162565  -0.906067
H    2.702837   4.928878  -0.897072
H    5.326212   5.484571  -2.927110
H    4.790154   7.689201   2.119951
H    9.379354   6.459235  -0.418442
H    8.116355   3.501474   3.525719
H    4.774393   3.457254   3.891797

