%chk=mol_4256.chk
# wB97XD/Def2SVP opt pop=full gfinput

C 4 H 2 N 2 O 1

1 2
C    1.827724   0.071904  -0.000945
C    4.099232   0.017121  -0.000151
C    6.781434  -0.047753   0.000794
N    8.083247   2.104418   0.005707
O   10.609262   1.334751   0.005140
N   10.805605  -1.300018  -0.000170
C    8.419467  -2.106874  -0.002778
H   -0.182642   0.142013  -0.001606
H    8.021093  -4.106413  -0.007030

