%chk=mol_0750.chk
# wB97XD/Def2SVP opt pop=full gfinput

C 5 H 8 O 1

1 2
C    1.784544  -0.028818  -0.087192
C    4.659535   0.013927   0.039911
C    5.720938   2.707637   0.000000
O    4.841554   4.053557   2.160165
C    8.449683   2.700627  -0.005064
C   10.698741   2.694863  -0.009260
H    1.101861  -1.981416  -0.106788
H    1.105830   0.904158  -1.804500
H    0.943276   0.921015   1.546457
H    5.419754  -1.073723  -1.552259
H    5.243820  -0.955635   1.777533
H    5.013198   3.705337  -1.670045
H    5.700983   3.338881   3.618429
H   12.712811   2.701288  -0.016195

