%chk=mol_4421.chk
# wB97XD/Def2SVP opt pop=full gfinput

C 5 H 9 N 1 O 1

1 2
C    5.304839  -1.695632  -1.955054
C    4.668342   0.012378   0.276372
C    5.720938   2.707637   0.000000
C    4.760334   4.369330   2.179554
O    5.288682   6.971653   1.737301
C    8.449702   2.707637   0.000000
N   10.624796   2.707637   0.000000
H    4.392139  -3.537889  -1.718706
H    7.340225  -2.019437  -2.106232
H    4.637180  -0.873866  -3.730376
H    5.375213  -0.867517   2.019172
H    2.602436   0.098455   0.447090
H    5.050860   3.520957  -1.786169
H    5.580248   3.826714   4.002572
H    2.704179   4.205170   2.343431
H    7.075739   7.265468   2.081420

