%chk=mol_5305.chk
# wB97XD/Def2SVP opt pop=full gfinput

C 4 H 8 N 2 O 1

1 2
C    1.798471   0.453742  -0.547076
O    4.496509   0.406178  -0.727242
C    5.797850   2.529134  -0.312542
N    8.247199   2.549732  -0.276996
N    8.917391   4.967107   0.265015
C    6.842226   6.717750  -0.204336
C    4.555393   5.016354   0.136476
H    1.120872  -1.495189  -0.647552
H    1.000383   1.507019  -2.135428
H    1.193759   1.259465   1.257575
H   10.564041   5.481661  -0.599667
H    6.932951   7.432425  -2.146124
H    6.845458   8.316609   1.103241
H    3.084543   5.429145  -1.250186
H    3.814356   5.084195   2.064639

