%chk=mol_0123.chk
# wB97XD/Def2SVP opt pop=full gfinput

C 5 H 4

1 2
C    1.889726   0.000000   0.000000
C    4.138803   0.000000   0.000000
C    6.867567   0.000000   0.000000
C    7.778453   2.572238   0.000000
C    8.529203   4.692322   0.000000
H   -0.123021   0.010960   0.000000
H    7.581506  -1.010191  -1.660181
H    7.581506  -1.010191   1.660181
H    9.190701   6.593160   0.000000

