%chk=mol_0210.chk
# wB97XD/Def2SVP opt pop=full gfinput

C 4 H 6 O 1

1 2
C    1.874495   0.068918   0.046374
C    4.695119  -0.082052   0.015326
C    6.018305  -2.223017   0.325789
C    6.103135   2.313441  -0.388282
O    5.040126   4.347088  -0.686991
H    1.232423   1.320748   1.562955
H    1.010644  -1.786037   0.354815
H    1.167907   0.799165  -1.755272
H    5.063294  -4.015970   0.625953
H    8.068053  -2.268125   0.293002
H    8.182023   2.157670  -0.404231

