%chk=mol_1531.chk
# wB97XD/Def2SVP opt pop=full gfinput

C 6 H 11 N 1

1 2
C    1.804500  -0.335993   0.540934
C    4.663655  -0.527007   0.317153
N    5.756276   2.002845   0.108432
C    8.521096   1.878312  -0.085529
C    9.658371   4.532168  -0.341398
C   12.434492   4.428176  -0.485981
C   14.700047   4.352171  -0.604731
H    0.973700  -2.225209   0.684591
H    0.984831   0.596246  -1.115316
H    1.252529   0.731570   2.226097
H    5.132421  -1.651186  -1.357693
H    5.409587  -1.506716   1.982720
H    5.264588   3.043385   1.655079
H    9.058629   0.745554  -1.737433
H    9.306618   0.946016   1.592510
H    9.103359   5.697543   1.280157
H    8.912327   5.457831  -2.038731
H   16.709808   4.289168  -0.713920

