%chk=mol_4013.chk
# wB97XD/Def2SVP opt pop=full gfinput

C 5 H 7 N 1 O 1

1 2
C    1.758541   0.060055  -0.016837
C    4.560873  -0.012529  -0.002646
C    6.176910   2.044873   0.009392
N    8.622253   1.177942   0.020201
C    8.617076  -1.409207   0.015156
C    6.144331  -2.168404   0.001002
O    5.477730  -4.609269  -0.007427
H    1.053957   2.004622  -0.000246
H    1.003804  -0.909298   1.647199
H    1.022191  -0.874490  -1.708785
H    5.795034   4.053482   0.011206
H   10.185832   2.277309   0.030236
H   10.358704  -2.476146   0.021883
H    3.648721  -4.754513  -0.017461

