%chk=mol_6133.chk
# wB97XD/Def2SVP opt pop=full gfinput

C 4 H 6 N 2 O 1

1 2
O    6.097239  -1.406826  -1.466503
C    4.187803   0.091519  -0.312221
C    5.217231   2.665156  -0.030330
C    4.189032   4.870996   0.895560
N    5.900349   6.814541   0.776451
C    7.950966   5.821698  -0.208909
N    7.629202   3.319228  -0.727431
H    5.376290  -3.086414  -1.661183
H    3.716978  -0.723935   1.528335
H    2.511692   0.091708  -1.522307
H    2.308055   5.167853   1.642701
H    9.700588   6.808041  -0.585910
H    8.903747   2.117098  -1.492638

