%chk=mol_1420.chk
# wB97XD/Def2SVP opt pop=full gfinput

C 5 H 8 N 2

1 2
C    4.059642  -1.248769   2.519232
C    4.964859  -0.338450  -0.055180
C    5.677304   2.444474  -0.032239
N    3.683624   4.129108  -0.120130
C    8.138559   3.092461   0.000000
C    9.025464   5.597010   0.000000
N    9.751534   7.647344   0.000000
H    3.590877  -3.263444   2.438219
H    2.365597  -0.229810   3.134262
H    5.524028  -0.992787   3.961074
H    3.481896  -0.658475  -1.466541
H    6.575453  -1.501935  -0.644945
H    2.028772   3.482047   0.615068
H    4.082413   5.940335   0.405176
H    9.581044   1.637126   0.037908

