%chk=mol_1088.chk
# wB97XD/Def2SVP opt pop=full gfinput

C 4 H 9 N 1 O 1

1 2
N    1.671387   0.450926  -0.827039
C    4.368763  -0.122171  -0.684175
C    5.667686   1.500556   1.324471
C    8.458131   1.041693   1.370751
C    9.881076   0.881746   3.831760
O    9.201681  -1.337662   2.430037
H    0.854648  -0.681227  -2.155724
H    1.420866   2.261624  -1.433905
H    5.234787   0.196210  -2.538601
H    4.609401  -2.128058  -0.233419
H    4.832672   1.111121   3.182299
H    5.346697   3.509032   0.930992
H    9.435705   1.696218  -0.301222
H    8.884320   1.230061   5.585085
H   11.857804   1.412287   3.851583

