%chk=mol_0079.chk
# wB97XD/Def2SVP opt pop=full gfinput

C 4 H 8 O 1

1 2
O    5.754330  -1.790100  -1.079997
C    4.472887   0.191316   0.193584
C    6.139607   2.463145   0.209287
C    6.216651   4.217000  -2.032571
C    5.028183   5.077392   0.403362
H    4.618075  -3.231942  -1.092583
H    4.074099  -0.413812   2.131346
H    2.680709   0.552046  -0.775506
H    7.902778   2.096028   1.185898
H    4.990238   3.817322  -3.624041
H    8.032111   5.006716  -2.556119
H    6.038034   6.464621   1.521759
H    2.991115   5.286414   0.449339

