%chk=mol_1021.chk
# wB97XD/Def2SVP opt pop=full gfinput

C 4 H 7 N 1 O 1

1 2
C    6.387407  -2.492889   0.750354
C    4.868369  -0.101705   0.475946
O    2.552037  -0.103047   0.667527
C    6.176721   2.335021  -0.029158
C    8.683122   2.609920  -0.173382
N    9.961559   4.813189  -0.652126
H    7.627898  -2.362139   2.396513
H    7.481218  -2.845228  -0.966047
H    5.101278  -4.087761   1.031053
H    4.914724   3.930063  -0.288788
H    9.966548   1.021813   0.070959
H    8.929542   6.419400  -0.412376
H   11.705530   4.920299   0.153332

