%chk=mol_2969.chk
# wB97XD/Def2SVP opt pop=full gfinput

C 5 H 6 O 2

1 2
C    1.726303  -0.173930  -0.194869
C    4.541239   0.043218  -0.100722
C    5.904203   2.181141   0.112873
C    4.691699   4.693947   0.324636
O    5.919510   6.649020   0.511076
C    8.711127   2.000124   0.154995
O    9.867489  -0.002060  -0.009411
H    1.189866  -2.126339  -0.620133
H    0.928706   1.020849  -1.681176
H    0.889494   0.325297   1.627905
H    5.545553  -1.753874  -0.229753
H    2.611016   4.726659   0.314450
H    9.715649   3.816359   0.347502

