%chk=mol_6898.chk
# wB97XD/Def2SVP opt pop=full gfinput

C 6 H 13 N 1

1 2
C    5.383868  -1.925763  -0.671231
C    4.419918   0.531882   0.466668
C    6.405491   2.553568   0.384956
C    6.565268   4.324733  -1.836776
C    5.787967   5.340102   0.714543
C    3.083731   6.183108   1.039841
N    7.639993   6.881116   2.107668
H    3.917648  -3.382440  -0.589613
H    7.042178  -2.620918   0.354135
H    5.928317  -1.662562  -2.650889
H    3.877831   0.203448   2.436348
H    2.712702   1.100652  -0.553803
H    8.168738   1.888158   1.198332
H    5.144458   4.187614  -3.308117
H    8.423643   4.799904  -2.559370
H    1.796978   5.264720  -0.293399
H    2.924975   8.224258   0.731929
H    2.430112   5.766443   2.958536
H    9.443018   6.321455   1.729893
H    7.402738   6.653594   4.006011

