%chk=mol_3558.chk
# wB97XD/Def2SVP opt pop=full gfinput

C 5 H 4 O 2

1 2
O    2.221298   0.043993   0.987684
C    4.407805  -0.044843   0.288675
C    5.960914  -2.375121  -0.158661
C    8.424115  -1.210048  -0.977442
C    8.512763   1.318934  -1.060873
C    6.023880   2.252932  -0.279661
O    5.388006   4.444976  -0.120829
H    5.136767  -3.518840  -1.665170
H    6.184639  -3.445311   1.591130
H   10.029684  -2.383984  -1.468638
H   10.058105   2.532233  -1.584857

