%chk=mol_2282.chk
# wB97XD/Def2SVP opt pop=full gfinput

C 6 H 10 O 1

1 2
C    1.885852   0.054915   0.533375
C    4.749354   0.018538   0.118580
C    5.591813  -2.453979  -1.182969
C    5.393751  -1.879597  -3.948375
O    7.497904  -0.578105  -5.035837
C    5.381694   0.920259  -4.279738
C    5.571612   2.125715  -1.724507
H    1.301284   1.838779   1.402555
H    1.315590  -1.482509   1.794465
H    0.846200  -0.159020  -1.241852
H    5.673525   0.239901   1.958002
H    4.414060  -4.066048  -0.643414
H    7.554842  -2.892963  -0.692018
H    4.207985  -3.082257  -5.083855
H    4.185271   1.814458  -5.662602
H    7.530729   2.684186  -1.351853
H    4.379705   3.809518  -1.574652

