%chk=mol_1084.chk
# wB97XD/Def2SVP opt pop=full gfinput

C 4 H 5 N 1 O 1

1 2
N    1.915785  -0.385939   0.601349
C    4.081997  -0.178674   0.314035
C    6.772967   0.161798  -0.064837
C    8.061213   2.134805   1.622311
C    9.845000  -0.012869   2.340690
O    8.239527  -1.854993   1.109666
H    7.291886   0.325827  -2.065187
H    6.932725   2.857776   3.197077
H    8.943866   3.709419   0.618715
H   11.716491   0.052478   1.464311
H   10.022446  -0.376263   4.366401

