%chk=mol_2184.chk
# wB97XD/Def2SVP opt pop=full gfinput

C 5 H 8 O 2

1 2
C   -2.803087   1.444847   0.483600
C   -2.532384  -1.313624  -0.305644
C    0.037228  -2.287759   0.345518
O    1.918563  -1.773376  -1.550029
C    2.136978  -0.424584   0.784255
C    1.590356   2.346379   0.673120
O   -0.774296   2.908874  -0.529199
H   -4.574762   2.213058  -0.260669
H   -2.847043   1.648899   2.545045
H   -2.827125  -1.494509  -2.349685
H   -3.987662  -2.451617   0.632567
H    0.065441  -4.123496   1.234142
H    3.694093  -0.904650   2.013957
H    1.549575   3.134224   2.587999
H    3.081161   3.323707  -0.374147

