%chk=mol_6074.chk
# wB97XD/Def2SVP opt pop=full gfinput

C 5 H 7 N 1 O 1

1 2
O    2.640949   0.411904   1.429597
C    4.568205  -0.093844   0.281872
N    5.261980  -2.385798  -0.707041
C    7.665542  -2.380677  -1.991715
C    8.596062   0.284612  -1.729855
C    7.255754   2.486502  -2.943513
C    6.612284   1.732671  -0.273689
H    4.107830  -3.898883  -0.544354
H    8.912874  -3.734326  -1.053088
H    7.381932  -2.924805  -3.964627
H   10.556917   0.455859  -1.194231
H    8.306745   4.224010  -3.210739
H    5.874346   2.115643  -4.410961
H    7.210439   2.936464   1.265436

