%chk=mol_2869.chk
# wB97XD/Def2SVP opt pop=full gfinput

C 6 H 14 O 1

1 2
C    0.450756   3.230033   1.560857
C    3.001735   1.909587   1.581871
C    5.139753   3.727541   0.900209
C    7.697157   2.390069   0.909960
C    9.841184   4.183116   0.218792
O   12.154170   2.795755   0.271478
C   14.246078   4.328947  -0.429913
H   -1.051311   1.896189   2.055720
H    0.029895   4.003233  -0.312561
H    0.406140   4.782821   2.928679
H    2.961257   0.335313   0.237784
H    3.334422   1.105301   3.460334
H    5.173635   5.299680   2.251250
H    4.789662   4.541484  -0.974097
H    7.679016   0.799543  -0.421069
H    8.067146   1.562690   2.775535
H    9.942926   5.740497   1.580000
H    9.542267   4.960437  -1.677340
H   15.959380   3.182922  -0.311049
H   14.432821   5.935138   0.857180
H   14.029950   4.994433  -2.374857

