%chk=mol_2674.chk
# wB97XD/Def2SVP opt pop=full gfinput

C 6 H 8 O 1

1 2
C    1.914406  -0.155808  -0.410713
C    4.542807   0.274237   0.525382
C    5.804407   2.460008   0.500570
O    8.259936   2.616779   1.432828
C    8.975840   5.240362   1.219535
C    6.781830   6.546068   0.057334
C    4.953048   4.871846  -0.348673
H    1.766119  -2.051562  -1.226073
H    1.361510   1.188203  -1.880032
H    0.572814  -0.026399   1.158308
H    5.497289  -1.372867   1.295218
H   10.664763   5.380126   0.035092
H    9.388462   5.973141   3.108751
H    6.703104   8.535780  -0.368459
H    3.123679   5.273564  -1.156853

