%chk=mol_1299.chk
# wB97XD/Def2SVP opt pop=full gfinput

C 7 H 10

1 2
C    1.662978  -0.072150  -0.297745
C    4.172893  -0.017045   0.053801
C    5.570648   2.412746   0.608038
C    8.191245   2.441205  -0.607301
C    9.728348   0.111910   0.148589
C    8.204605  -2.276553   0.018935
C    5.671767  -2.309491  -0.066726
H    0.538402   1.640226  -0.196267
H    0.658211  -1.817104  -0.690090
H    4.496792   4.052839  -0.064931
H    5.768729   2.616080   2.662794
H    9.210487   4.159684  -0.060755
H    7.992426   2.494722  -2.672281
H   10.450525   0.331439   2.078113
H   11.369688  -0.047640  -1.103695
H    9.238776  -4.050325  -0.029347
H    4.690338  -4.108189  -0.223385

