%chk=mol_3034.chk
# wB97XD/Def2SVP opt pop=full gfinput

C 5 H 6 O 2

1 2
C    1.797980   0.117862  -0.038966
C    4.331007  -0.068559  -0.097793
C    5.354955  -2.697395  -0.152936
O    7.629750  -3.131371  -0.190258
C    6.067457   2.105930  -0.077158
C    7.192109   2.978076  -2.548428
O    5.436194   4.512477  -1.176638
H    0.905292   1.968131   0.009845
H    0.546811  -1.506395  -0.045807
H    3.949282  -4.236879  -0.157792
H    7.298047   2.151945   1.564996
H    6.545671   2.140644  -4.299864
H    9.156157   3.553517  -2.557971

