%chk=mol_6785.chk
# wB97XD/Def2SVP opt pop=full gfinput

C 5 H 12 N 2

1 2
C    1.740551  -0.098719   0.000699
C    4.609307  -0.030784   0.097642
C    6.039073   2.017207   1.657252
N    4.584646   2.810344   3.874071
C    7.935338  -0.061681   2.454565
C    5.907397  -2.053679   1.783202
N    7.019652  -4.020185   0.201502
H    1.096854  -1.727021  -1.101786
H    1.004049   1.609329  -0.905047
H    0.897469  -0.247649   1.883415
H    5.315308  -0.019578  -1.862609
H    6.835688   3.583072   0.571094
H    3.928363   1.392029   4.997116
H    3.065892   3.917251   3.456252
H    9.631141  -0.076912   1.258161
H    8.560365  -0.054878   4.427156
H    4.801378  -2.740802   3.391076
H    8.116582  -3.379511  -1.248674
H    5.720239  -5.200885  -0.594224

