%chk=mol_0758.chk
# wB97XD/Def2SVP opt pop=full gfinput

C 4 H 10 O 2

1 2
C    1.683406   0.009997   0.090593
C    4.567733   0.009675   0.050758
C    5.609784  -1.486213   2.292578
O    5.370035  -1.248750  -2.207994
C    5.588978   2.734547  -0.002438
O    8.276132   2.716217  -0.297311
H    0.923887   0.981788  -1.573575
H    0.944655   0.938230   1.785942
H    0.942255  -1.923136   0.023603
H    5.126204  -0.590445   4.094130
H    7.668395  -1.678833   2.181708
H    4.855481  -3.416247   2.300364
H    7.069938  -0.614577  -2.562847
H    5.102979   3.787578   1.711846
H    4.829838   3.754338  -1.635898
H    9.008910   2.391788   1.358278

