%chk=mol_5970.chk
# wB97XD/Def2SVP opt pop=full gfinput

C 5 H 7 N 1 O 1

1 2
O    2.703801   0.621153   1.562369
C    4.592450   0.002060   0.392307
C    5.371396  -2.660375  -0.284479
C    7.755776  -2.390957  -1.924459
C    8.519925   0.334916  -1.834206
N    6.938375   2.200095  -3.095806
C    6.580518   1.803025  -0.382008
H    3.855665  -3.622189  -1.305933
H    5.801705  -3.685495   1.459360
H    9.264893  -3.608716  -1.201337
H    7.368779  -2.975884  -3.873353
H   10.512263   0.713825  -1.621914
H    7.898621   3.845933  -3.408442
H    7.156280   3.274215   0.910357

