%chk=mol_3129.chk
# wB97XD/Def2SVP opt pop=full gfinput

C 5 H 10 O 2

1 2
C    1.551938  -0.671212   0.177048
C    4.383957  -0.228714   0.061322
C    5.029809   2.576113   0.073397
O    7.714505   2.828807  -0.004649
C    8.459567   5.411155  -0.086039
C   11.308197   5.526882  -0.147550
O   12.504469   7.045976  -1.434378
H    1.140790  -2.698094   0.153824
H    0.598609   0.195776  -1.441445
H    0.747689   0.126763   1.908113
H    5.164452  -1.111858  -1.643003
H    5.308656  -1.163920   1.662373
H    4.306610   3.472958   1.795032
H    4.194814   3.509618  -1.576599
H    7.810767   6.390525   1.615980
H    7.707172   6.324592  -1.782503
H   12.285979   4.274447   1.201998

