%chk=mol_1042.chk
# wB97XD/Def2SVP opt pop=full gfinput

C 4 H 9 N 1 O 1

1 2
C    1.798433  -0.178163   0.046072
N    4.535154   0.018557   0.211460
C    5.927825  -2.344564   0.066292
C    5.871417   2.268087  -0.022847
C    4.356650   4.681777  -0.079217
O    8.190829   2.350290  -0.172362
H    0.855309   1.578658   0.570376
H    1.145250  -1.670688   1.318708
H    1.293253  -0.658022  -1.900403
H    5.155003  -3.674327   1.447908
H    7.938947  -2.081836   0.459298
H    5.712548  -3.120335  -1.837929
H    3.054610   4.676354  -1.683255
H    5.639737   6.288045  -0.302545
H    3.330605   4.920582   1.697239

