%chk=mol_6121.chk
# wB97XD/Def2SVP opt pop=full gfinput

C 4 H 7 N 1 O 2

1 2
O    3.853473  -0.744269  -2.487976
C    3.798312   0.318891  -0.018633
C    5.830977   2.335418   0.154636
C    5.360454   4.836452  -1.285883
C    5.933400   6.073410   1.280724
O    6.575302   8.107738   2.080721
N    5.632310   3.828056   2.506457
H    2.556044  -2.047084  -2.542078
H    4.155016  -1.193079   1.347828
H    1.909417   1.093263   0.320063
H    7.747310   1.577203  -0.081164
H    3.432895   5.177132  -1.948440
H    6.725290   5.268273  -2.770792
H    6.605840   3.601553   4.135514

