%chk=mol_5006.chk
# wB97XD/Def2SVP opt pop=full gfinput

C 4 H 8 N 2 O 1

1 2
C    2.253347   0.016648   0.236915
N    4.961476  -0.180393   0.581998
O    6.214591   2.111089   0.026947
C    8.241946   1.429994  -1.650714
C    8.926197  -1.274998  -1.078202
C    6.375728  -2.166684  -0.302281
N    5.781390  -4.518392  -0.476532
H    1.294236  -1.708501   0.847996
H    1.794692   0.361618  -1.749565
H    1.505658   1.580567   1.363834
H    7.564763   1.653926  -3.595582
H    9.835608   2.712381  -1.357182
H    9.690781  -2.287117  -2.703593
H   10.204238  -1.429389   0.538515
H    3.999624  -4.785845   0.221022

