%chk=mol_0312.chk
# wB97XD/Def2SVP opt pop=full gfinput

C 5 H 11 N 1

1 2
C    5.727458  -2.212321  -0.730322
C    4.491350   0.191675   0.241583
C    6.349555   2.323286   0.376679
C    6.848178   3.957427  -1.915785
N    5.398456   4.909943   0.229016
C    6.806586   6.684793   1.801438
H    4.352965  -3.755547  -0.793383
H    7.292699  -2.788215   0.493785
H    6.483121  -1.937971  -2.636716
H    3.724159  -0.152803   2.135013
H    2.888768   0.674009  -0.982469
H    7.897241   1.934569   1.661636
H    5.774833   3.609434  -3.624098
H    8.743593   4.669173  -2.216781
H    6.028378   6.680806   3.719397
H    6.596883   8.599444   1.044149
H    8.835698   6.279428   1.941656

