%chk=mol_1566.chk
# wB97XD/Def2SVP opt pop=full gfinput

C 5 H 10 N 2

1 2
C    1.872681  -0.030368   0.133075
C    4.762110   0.000000   0.000000
N    5.760301  -1.322374   2.229650
C    5.677134  -1.412910  -2.436367
N    8.438478  -1.841122  -2.503717
C    5.672996   2.572238   0.000000
C    6.423746   4.692322   0.000000
H    1.036118   0.922923  -1.508361
H    1.171555   0.942444   1.826628
H    1.133401  -1.967224   0.171625
H    5.834019  -0.107261   3.717620
H    7.588006  -1.798604   1.806276
H    5.131117  -0.347899  -4.128844
H    4.758822  -3.267129  -2.551603
H    9.324400  -0.128558  -2.504000
H    8.891143  -2.682202  -4.175218
H    7.092483   6.592083   0.010393

