%chk=mol_0791.chk
# wB97XD/Def2SVP opt pop=full gfinput

C 4 H 6 O 2

1 2
C    5.721902  -2.787592   2.006058
C    4.632739  -1.114863   0.454574
O    5.671351   0.937814  -0.713409
C    8.285542   1.397264  -0.276051
C    8.965106   3.746023  -1.737754
O   10.933029   3.986906  -2.948634
H    4.614012  -4.333426   2.779636
H    7.692999  -2.703574   2.553303
H    2.651040  -1.256195  -0.058449
H    9.439995  -0.175801  -0.962929
H    8.638033   1.776532   1.726624
H    7.656509   5.354709  -1.512405

