%chk=mol_0899.chk
# wB97XD/Def2SVP opt pop=full gfinput

C 5 H 6 O 1

1 2
O    1.889858  -0.009751  -0.016403
C    4.573137   0.000000   0.000000
C    5.484023   2.572238   0.000000
C    6.234774   4.692322   0.000000
C    7.121679   7.196871   0.000000
C    5.532948   9.161638  -0.000094
H    1.369749  -1.768878  -0.015571
H    5.237225  -1.021435  -1.670953
H    5.216665  -1.014140   1.683406
H    9.148674   7.513834   0.000038
H    3.497222   8.898626  -0.000208
H    6.243655  11.084113  -0.000132

