%chk=mol_3311.chk
# wB97XD/Def2SVP opt pop=full gfinput

C 6 H 12 O 1

1 2
C    4.290283  -1.468355  -1.673371
O    3.690503   0.914798  -0.593317
C    5.884872   2.482873  -0.217016
C    6.379073   4.518959  -2.154118
C    4.788755   4.781328  -4.464743
C    5.306710   5.208236   0.392269
C    6.878792   6.606539   2.262947
H    2.536164  -2.516057  -1.965636
H    5.505793  -2.546746  -0.392477
H    5.230441  -1.218703  -3.499074
H    7.508524   1.647066   0.722707
H    8.337944   4.974609  -2.545329
H    2.780638   4.455256  -4.086117
H    5.401876   3.431932  -5.907870
H    4.985400   6.687382  -5.244727
H    3.333156   5.748018   0.511813
H    8.872907   6.067117   2.163264
H    6.204632   6.228991   4.180698
H    6.744811   8.641170   1.921228

