%chk=mol_5406.chk
# wB97XD/Def2SVP opt pop=full gfinput

C 4 H 6 N 2 O 1

1 2
C    2.197355   0.151896  -0.792835
O    4.500042   0.771386  -2.057817
C    5.704271   2.804089  -0.938759
N    4.403251   5.048044  -0.976308
C    8.050007   2.429923  -0.059054
C    9.547577   4.342761   1.066731
N   10.781379   5.918244   1.962934
H    1.520889  -1.646896  -1.554886
H    0.745969   1.582268  -1.150503
H    2.499465  -0.082468   1.242041
H    3.265919   5.173239  -2.521991
H    5.503676   6.612926  -0.770800
H    8.888931   0.566729  -0.196399

