%chk=mol_4534.chk
# wB97XD/Def2SVP opt pop=full gfinput

C 4 H 10 N 2 O 1

1 2
C    3.331039  -1.402271   3.402962
C    4.715528  -1.275357   0.884278
C    6.599963   0.912511   0.754908
N    8.625957   0.612045   2.603495
O   10.179633  -1.476405   2.119139
C    9.928961   2.654631   3.527287
N   12.216890   2.673207   4.353608
H    1.913272  -2.907325   3.360330
H    2.362668   0.379778   3.807855
H    4.633779  -1.803857   4.957848
H    3.319776  -1.036685  -0.628712
H    5.673147  -3.079762   0.540046
H    5.590263   2.692614   1.082832
H    7.416457   1.017731  -1.146686
H   10.029305  -2.454792   3.676764
H    8.804801   4.411112   3.558392
H   12.910646   0.881671   4.085531

