%chk=mol_0729.chk
# wB97XD/Def2SVP opt pop=full gfinput

C 4 H 8 O 2

1 2
C    1.299659  -1.291080  -0.575648
C    3.949547  -0.350922   0.014986
C    4.085172   2.530022  -0.034412
C    6.712742   3.484957   0.549721
O    6.855171   6.037561   0.462888
O    8.537008   2.166306   1.053957
H    1.247049  -3.358440  -0.533111
H    0.695041  -0.672024  -2.454527
H   -0.063155  -0.585513   0.811430
H    5.279045  -1.145212  -1.361510
H    4.524760  -1.055261   1.876611
H    2.786118   3.316318   1.372376
H    3.549643   3.220358  -1.911779
H    5.257539   6.855246   0.039779

