%chk=mol_5868.chk
# wB97XD/Def2SVP opt pop=full gfinput

C 4 H 7 N 1 O 2

1 2
N    1.761092   1.295256   0.355873
C    4.234725   1.184745  -0.328812
O    5.160955  -0.747160  -1.200335
C    5.781107   3.483899   0.192903
C    4.757348   5.808735   0.048944
C    8.502407   2.909082   0.773918
O    9.957307   5.157781   1.077881
H    1.021586   2.738894   1.355690
H    0.725976  -0.299333   0.153068
H    2.801576   6.127588  -0.469956
H    5.881395   7.482049   0.430139
H    9.377332   1.792179  -0.733006
H    8.636445   1.837683   2.538866
H   10.198002   5.846132  -0.608983

