%chk=mol_1729.chk
# wB97XD/Def2SVP opt pop=full gfinput

C 6 H 11 N 1

1 2
C    1.700527  -0.692547   0.464551
N    4.290831  -0.292473  -0.425321
C    4.973967  -2.290083  -2.219691
C    4.604828   2.207446  -1.629246
C    4.382521   4.438816   0.219095
C    4.858694   6.859951  -1.072401
C    5.235845   8.836719  -2.119158
H    1.219213   0.624630   1.984194
H    1.493791  -2.589000   1.272012
H    0.310331  -0.483184  -1.056281
H    4.820086  -4.153599  -1.329592
H    6.945329  -2.088299  -2.820189
H    3.770835  -2.270374  -3.905818
H    3.252256   2.440392  -3.187495
H    6.496557   2.297718  -2.481740
H    5.738437   4.204036   1.768198
H    2.493267   4.506109   1.061667
H    5.568607  10.594485  -3.045483

