%chk=mol_2832.chk
# wB97XD/Def2SVP opt pop=full gfinput

C 7 H 14

1 2
C    1.891446   0.023187  -0.047999
C    4.764226   0.017593   0.066140
C    5.805881   2.127964   1.732482
C    8.493110   1.259824   2.249454
C    8.253889  -1.579830   2.669522
C    5.858907  -2.410837   1.244781
C    6.408080  -4.433657  -0.731305
H    1.197519  -1.522137  -1.236372
H    1.197293   1.803668  -0.842591
H    1.058927  -0.197703   1.834414
H    5.504394   0.263182  -1.857166
H    4.746520   2.277989   3.507823
H    5.754745   3.966308   0.789093
H    9.689042   1.627187   0.596738
H    9.334586   2.223773   3.873202
H    9.961559  -2.575772   2.059707
H    8.009982  -1.963879   4.691302
H    4.523343  -3.202538   2.622543
H    7.780815  -3.767320  -2.128380
H    4.681626  -4.971057  -1.734901
H    7.182622  -6.131462   0.161213

