%chk=mol_5653.chk
# wB97XD/Def2SVP opt pop=full gfinput

C 4 H 2 N 2 O 1

1 2
N    1.787530  -0.020258  -0.008938
C    3.981218  -0.058695  -0.002835
C    6.676213  -0.020995   0.004403
C    8.211673   2.067795   0.001720
O   10.654578   1.242400   0.011112
C   10.439244  -1.325076   0.018973
N    8.109439  -2.189267   0.015458
H    7.926475   4.089159  -0.005707
H   12.184217  -2.389313   0.027269

