%chk=mol_7161.chk
# wB97XD/Def2SVP opt pop=full gfinput

C 6 H 9 N 1

1 2
C    4.811394  -0.412282  -3.057917
C    4.500799   0.460866  -0.334028
C    5.535896   3.091668   0.129465
C    3.990837   4.992127   0.812885
C    8.352268   3.509543  -0.203864
C    9.854260   1.944642   1.536990
N   11.063969   0.704320   2.885045
H    3.902606  -2.252553  -3.319909
H    6.805565  -0.624347  -3.564647
H    3.943065   0.924057  -4.377683
H    5.423193  -0.889570   0.937077
H    2.482382   0.393365   0.138252
H    1.971854   4.703396   1.055620
H    4.688675   6.891737   1.158705
H    8.831578   5.501635   0.112250
H    8.884718   3.099208  -2.162168

