%chk=mol_0806.chk
# wB97XD/Def2SVP opt pop=full gfinput

C 4 H 8 O 2

1 2
C    4.524496  -1.827573  -1.689491
O    3.830399   0.601386  -0.780362
C    5.987597   2.102245  -0.052100
C    6.831190   4.038534  -1.946664
C    5.457189   4.860754   0.388943
O    6.992478   6.076471   2.267426
H    2.809154  -2.829903  -2.255936
H    5.465069  -2.907495  -0.198024
H    5.767652  -1.652981  -3.332759
H    7.401774   1.246652   1.164317
H    5.827991   4.141165  -3.729186
H    8.837040   4.422375  -2.079644
H    3.507785   5.469964   0.201426
H    6.842264   7.904686   2.150074

