%chk=mol_6409.chk
# wB97XD/Def2SVP opt pop=full gfinput

C 4 H 7 N 1 O 2

1 2
O    2.476014   3.887639  -4.043485
N    4.954390   3.148870  -3.348633
C    5.466241   3.303638  -0.798636
O    3.829870   3.863470   0.755834
C    8.198577   2.770622  -0.110171
C    9.641855   5.205987   0.026494
C   11.664542   5.749473  -1.395223
H    1.693724   4.259972  -2.399366
H    6.324403   3.498979  -4.643095
H    9.022478   1.460796  -1.486118
H    8.230816   1.821431   1.729156
H    8.979091   6.595390   1.396338
H   12.420924   4.428347  -2.769413
H   12.633121   7.550061  -1.189299

