%chk=mol_5503.chk
# wB97XD/Def2SVP opt pop=full gfinput

C 5 H 7 N 1 O 1

1 2
N    1.928787   0.004516  -0.032862
C    4.668039   0.216978  -0.091765
C    5.489428   2.726383   0.990991
C    7.089875   2.349988   2.930833
C    7.567238  -0.339451   3.445802
O    8.537688  -2.025749   1.552693
C    5.849685  -1.743707   1.631249
H    1.423644  -1.681743  -0.811184
H    1.181041   1.351305  -1.185954
H    5.366879   0.000831  -2.028357
H    4.896091   4.545075   0.287579
H    7.963476   3.843401   4.018087
H    7.601726  -0.929481   5.403936
H    4.680133  -3.272042   2.295186

