%chk=mol_2805.chk
# wB97XD/Def2SVP opt pop=full gfinput

C 6 H 14 O 1

1 2
C    3.536358  -1.764192   0.839662
C    6.276215  -0.847164   0.675993
C    7.720930  -2.438143  -1.257273
C    6.326425   1.996496   0.028894
C    8.971852   3.179918   0.030973
C    8.861568   5.992624  -0.571737
O   10.128158   2.857795   2.439901
H    2.491245  -0.704206   2.276515
H    3.461033  -3.765997   1.357126
H    2.557593  -1.532152  -0.968655
H    7.146869  -1.135291   2.535597
H    7.015532  -2.110238  -3.174551
H    7.523775  -4.455577  -0.841136
H    9.741803  -2.004584  -1.228908
H    5.157894   2.986542   1.430334
H    5.436591   2.303123  -1.819617
H   10.180428   2.258072  -1.369466
H    7.732589   7.014286   0.832821
H    8.049515   6.328391  -2.444512
H   10.760724   6.816374  -0.518673
H    9.065337   3.683398   3.691731

