%chk=mol_1338.chk
# wB97XD/Def2SVP opt pop=full gfinput

C 5 H 12 N 2

1 2
C    1.655400  -1.107984  -0.308328
C    4.536137  -0.742662  -0.341285
C    5.693707  -2.074088   1.962859
C    5.603775  -1.862646  -2.795736
N    5.032775   2.001938  -0.226862
N    7.482182   2.757129  -0.314583
C    7.754472   5.181950  -0.273897
H    0.754624  -0.170132  -1.922343
H    0.809785  -0.336844   1.420148
H    1.158327  -3.117765  -0.398335
H    4.969130  -1.282841   3.735630
H    7.757628  -1.898721   1.990467
H    5.244954  -4.096737   1.953259
H    4.817857  -0.914627  -4.462475
H    5.144628  -3.877491  -2.951129
H    7.666241  -1.692873  -2.885423
H    4.118129   2.741010   1.308409
H    9.667650   5.997839  -0.332894
H    6.161547   6.526132  -0.192204

