%chk=mol_1049.chk
# wB97XD/Def2SVP opt pop=full gfinput

C 4 H 9 N 1 O 1

1 2
C    3.217221  -0.877664   2.199112
N    5.545798  -0.684723   0.743758
C    6.380849   1.954506   0.574439
C    8.779006   2.066453  -1.010625
C   11.248047   1.710051   0.360220
O    8.699090   2.322833  -3.324595
H    2.620124  -2.855093   2.281825
H    1.687147   0.214541   1.335999
H    3.499376  -0.229999   4.143074
H    5.221143  -1.330292  -1.050385
H    6.780734   2.745810   2.444777
H    4.953331   3.145770  -0.337014
H   11.434128   3.142331   1.836001
H   12.816633   1.923892  -0.967672
H   11.319119  -0.180166   1.187088

