%chk=mol_2375.chk
# wB97XD/Def2SVP opt pop=full gfinput

C 6 H 12 O 1

1 2
C    1.893411   0.004271  -0.103822
C    4.761373   0.069240   0.021486
C    5.786890   2.131573   1.721163
C    8.443410   1.201715   2.221959
O    8.333069  -1.506924   2.234318
C    5.936782  -2.284055   1.211617
C    6.362198  -4.421713  -0.655867
H    1.243289  -1.544246  -1.308352
H    1.161029   1.774491  -0.883088
H    1.059853  -0.255283   1.773262
H    5.516999   0.350034  -1.890747
H    4.722501   2.213720   3.496844
H    5.748887   4.008563   0.857652
H    9.734905   1.770258   0.706115
H    9.198790   1.879503   4.021035
H    4.791930  -2.966530   2.798136
H    7.659476  -3.838639  -2.163018
H    4.590032  -5.050218  -1.509268
H    7.250444  -6.032610   0.290527

