%chk=mol_3127.chk
# wB97XD/Def2SVP opt pop=full gfinput

C 5 H 10 O 2

1 2
C    4.885868  -0.893047  -3.330661
C    5.875234  -0.785918  -0.634211
C    7.045674   1.770560   0.044843
O    7.628447   1.705931   2.683581
C    8.256138   4.131697   3.669130
C    9.439881   2.183824  -1.489671
O    9.763912   4.003233  -2.895193
H    3.995561  -2.726195  -3.689539
H    6.411349  -0.653789  -4.707176
H    3.471843   0.580448  -3.661666
H    7.259742  -2.303255  -0.348768
H    4.317779  -1.190603   0.673555
H    5.693480   3.292526  -0.343949
H    8.476650   3.954951   5.714985
H    6.750763   5.494681   3.285251
H   10.046408   4.796371   2.878299
H   10.924847   0.738259  -1.250035

