%chk=mol_1028.chk
# wB97XD/Def2SVP opt pop=full gfinput

C 4 H 7 N 1 O 1

1 2
C    2.146861  -0.084168   0.622476
C    4.952878  -0.448734   0.310388
O    5.910402  -2.562185   0.295232
N    6.283245   1.792330   0.105069
C    8.855275   1.895131  -0.174819
C   10.096504   4.084265  -0.360314
H    1.549708   1.800229   0.021127
H    1.647917  -0.350979   2.608824
H    1.151788  -1.473778  -0.538931
H    5.317462   3.442873   0.173685
H    9.850764   0.095337  -0.238729
H    9.148108   5.899479  -0.300901
H   12.135236   4.092580  -0.580108

