%chk=mol_1368.chk
# wB97XD/Def2SVP opt pop=full gfinput

C 6 H 13 N 1

1 2
C    5.807695  -1.237430  -2.059896
C    4.782217  -0.010582   0.332648
C    5.893111   2.627286   0.817004
N    4.714942   3.747308   3.052947
C    8.692665   2.548730   1.324660
C   10.546638   3.309628  -0.707759
C   10.196225   4.964480   1.568737
H    4.861699  -3.048128  -2.388614
H    7.836354  -1.608667  -1.909247
H    5.481188  -0.035300  -3.711006
H    5.162788  -1.266646   1.938576
H    2.720771   0.129673   0.155165
H    5.488218   3.853549  -0.803890
H    5.021002   2.612093   4.576387
H    2.807472   3.807874   2.806432
H    9.224642   1.010644   2.572012
H    9.828579   4.001306  -2.498010
H   12.291138   2.247357  -0.861526
H   11.687276   5.014974   2.971519
H    9.205934   6.743299   1.338720

