%chk=mol_0873.chk
# wB97XD/Def2SVP opt pop=full gfinput

C 4 H 8 O 2

1 2
O    5.645179  -1.804405  -1.193494
C    4.459433   0.168072   0.182226
C    6.188645   2.389351   0.212519
C    6.262685   4.198971  -1.986329
C    5.133894   5.016467   0.487871
O    6.608769   6.741806   1.968414
H    4.489347  -3.231281  -1.177280
H    4.106054  -0.486737   2.111655
H    2.648281   0.604618  -0.717416
H    7.957731   1.946248   1.143549
H    4.990823   3.870726  -3.558808
H    8.080998   4.955316  -2.543401
H    3.095504   5.240267   0.559283
H    8.414138   6.517665   1.708105

