%chk=mol_2497.chk
# wB97XD/Def2SVP opt pop=full gfinput

C 5 H 6 O 2

1 2
C    1.753515   0.071885  -0.015401
C    4.549724  -0.049057  -0.001361
C    6.223152   1.953108   0.005669
O    8.649012   1.117792   0.018141
C    8.546570  -1.438365   0.019030
O   10.773310  -2.558991   0.030708
C    6.083917  -2.261662   0.007200
H    1.083153   2.029074   0.003326
H    0.980919  -0.886376   1.647236
H    0.999930  -0.848279  -1.708010
H    5.999767   3.984223   0.003383
H   10.446255  -4.364304   0.030255
H    5.453485  -4.203186   0.005008

