%chk=mol_1923.chk
# wB97XD/Def2SVP opt pop=full gfinput

C 5 H 12 N 2

1 2
N    1.965070   0.029518  -0.243983
C    4.704511   0.029007   0.034223
C    5.633501   2.105287   1.801419
C    8.345824   1.298771   2.321661
C    8.244781  -1.581644   2.533896
C    5.754858  -2.399461   1.280082
N    6.112735  -4.479293  -0.505086
H    1.422642  -1.403689  -1.405692
H    1.390272   1.670291  -1.070643
H    5.561823   0.298161  -1.836530
H    4.549365   2.137488   3.568464
H    5.532343   3.983883   0.942085
H    9.555117   1.833696   0.724691
H    9.121103   2.184561   4.020751
H    9.921421  -2.431492   1.667060
H    8.238148  -2.157954   4.524609
H    4.461152  -3.049602   2.766635
H    7.301259  -3.930990  -1.917505
H    4.428781  -4.871865  -1.348716

