%chk=mol_4966.chk
# wB97XD/Def2SVP opt pop=full gfinput

C 5 H 9 N 1 O 1

1 2
C    1.912403  -0.173647   0.257154
N    4.652619  -0.146114  -0.058147
C    5.794959   1.945530   1.420998
C    7.873487   0.069731   2.250097
C    5.869112  -1.975765   1.676924
C   10.321060   0.054424   0.671231
O   12.280461   1.203321   1.188260
H    1.130113  -1.911704  -0.549702
H    1.070757   1.414422  -0.769289
H    1.299640  -0.054424   2.233222
H    4.664146   2.674567   2.999978
H    6.432836   3.546430   0.277450
H    8.328855   0.197552   4.269949
H    6.570030  -3.689426   0.755361
H    4.763206  -2.533972   3.341111
H   10.263235  -1.135442  -1.039482

