%chk=mol_6485.chk
# wB97XD/Def2SVP opt pop=full gfinput

C 4 H 6 N 2 S 1

1 2
C    2.354429   0.365171   0.009354
C    5.121555  -0.070279  -0.000076
N    6.869873   1.698732  -0.012850
C    9.223394   0.529671  -0.016743
C   11.545169   2.092834  -0.030765
N    9.365445  -1.990222  -0.008107
S    6.393775  -3.054251   0.006992
H    1.274696  -1.398208  -0.013568
H    1.806937   1.471946  -1.650487
H    1.811340   1.427027   1.699563
H   13.255050   0.927912  -0.017669
H   11.589823   3.319455   1.634443
H   11.592052   3.285723  -1.720237

