%chk=mol_7027.chk
# wB97XD/Def2SVP opt pop=full gfinput

C 6 H 9 N 1

1 2
C    6.352466  -1.702813  -4.714337
C    6.603232  -0.919427  -2.601170
C    6.906212   0.040251  -0.010110
C    8.301850   2.547842  -0.005027
C    6.843209   4.904727  -0.917670
N    8.032621   6.353656   1.164393
C    8.396828   3.949093   2.550375
H    6.127172  -2.401917  -6.591308
H    7.964156  -1.343142   1.111178
H    5.044057   0.231662   0.877400
H   10.188950   2.396059  -0.867195
H    4.781083   4.787999  -0.752527
H    7.318720   5.570913  -2.815881
H    9.694201   7.184682   0.644208
H   10.182865   3.806419   3.581371
H    6.844909   3.519199   3.854285

