%chk=mol_4320.chk
# wB97XD/Def2SVP opt pop=full gfinput

C 5 H 9 N 1 O 1

1 2
C    1.838307  -0.137912  -0.004271
C    4.702640   0.090272  -0.231662
C    5.615756  -1.119171  -2.648829
C    7.194811  -3.095579  -2.759681
C    5.504583   2.870399  -0.250578
N    7.898753   3.320173   0.613537
O    4.189201   4.615769  -1.021624
H    1.164015   0.819782   1.704514
H    1.259918  -2.123693   0.108546
H    0.861810   0.719438  -1.619571
H    5.562843  -0.821634   1.418901
H    4.922529  -0.300221  -4.408939
H    7.933429  -3.994012  -1.070946
H    7.766680  -3.873410  -4.571720
H    9.165833   1.906847   0.819593
H    8.547647   5.110783   0.462510

