%chk=mol_2831.chk
# wB97XD/Def2SVP opt pop=full gfinput

C 7 H 12

1 2
C    1.667721  -0.217583  -0.287938
C    4.517882  -0.179335  -0.049719
C    5.596197  -2.828825  -0.182188
C    5.910459   1.953391   0.287560
C    4.761278   4.574592   0.387980
C    8.674410   1.881374   0.464003
C   10.179086   3.734099   1.312472
H    0.746706   1.562426   0.192695
H    0.861129  -1.629152   0.995338
H    1.130132  -0.720496  -2.221770
H    4.411528  -4.147495   0.890137
H    7.486849  -3.008501   0.623761
H    5.651547  -3.469594  -2.148883
H    2.836725   4.671460  -0.347540
H    5.843033   5.901671  -0.779682
H    4.735125   5.275341   2.335456
H    9.618461   0.168734  -0.164671
H    9.467868   5.524520   2.008722
H   12.214094   3.472164   1.349624

