%chk=mol_5784.chk
# wB97XD/Def2SVP opt pop=full gfinput

C 4 H 9 N 1 O 2

1 2
N    3.020746   0.247460  -2.582141
C    5.642477   0.195927  -1.632704
C    6.087016   2.399423   0.217167
O    4.247008   2.218368   2.196958
C    8.655910   2.506627   1.397679
C   10.586719   0.409012   1.345353
O   10.707112   2.496309  -0.381347
H    2.762194  -1.270614  -3.746231
H    2.797834   1.798339  -3.709627
H    6.967194   0.263976  -3.217826
H    5.890371  -1.609026  -0.651748
H    5.743426   4.197195  -0.755701
H    2.716462   1.629076   1.336565
H    8.744292   3.873390   2.919438
H   10.104328  -1.424702   0.585210
H   11.979598   0.348239   2.846192

