%chk=mol_5938.chk
# wB97XD/Def2SVP opt pop=full gfinput

C 7 H 16

1 2
C    4.979636  -1.567074  -2.263590
C    4.265206   0.188368  -0.094732
C    5.519077   2.841581  -0.134643
C    4.664373   4.315190  -2.501790
C    4.585099   4.312166   2.204158
C    8.451441   2.725420  -0.149402
C    9.662132   1.357749   2.077111
H    3.974491  -3.365640  -2.065338
H    7.002569  -1.987085  -2.273265
H    4.460188  -0.768627  -4.096851
H    4.705796  -0.771292   1.688943
H    2.201947   0.413926  -0.112949
H    5.399590   3.466627  -4.240262
H    5.341273   6.272663  -2.443340
H    2.600263   4.371900  -2.645692
H    5.002521   3.303487   3.962208
H    2.534047   4.595757   2.133860
H    5.471097   6.180614   2.317919
H    9.206841   4.658628  -0.193980
H    9.109141   1.829765  -1.899458
H    9.235299   2.293674   3.868251
H   11.719854   1.353781   1.857506
H    9.047555  -0.611232   2.195370

