%chk=mol_5863.chk
# wB97XD/Def2SVP opt pop=full gfinput

C 4 H 2 N 2 O 1

1 2
N    1.907376  -0.010337  -0.000000
C    4.472301  -0.144262  -0.000000
O    5.629551  -2.140568  -0.000000
C    5.803632   2.223036  -0.000000
C    6.939981   4.187085  -0.000000
C    8.390819   6.691407  -0.000000
N    9.465582   8.602203  -0.000000
H    0.955635   1.642815   0.000000
H    0.929046  -1.650676  -0.000000

