%chk=mol_0624.chk
# wB97XD/Def2SVP opt pop=full gfinput

C 5 H 8 O 1

1 2
C    1.887043   0.062682   0.045996
C    4.687107  -0.058204   0.012869
C    6.160413  -2.094591  -0.126158
C    8.851326  -1.325775  -0.088666
O    8.845656   1.392539  -0.059432
C    6.271774   2.253291   0.153748
H    1.045094  -1.823246  -0.078197
H    1.193230   1.176033  -1.553109
H    1.223125   0.943162   1.795826
H    5.525446  -4.029482  -0.236707
H    9.819376  -2.008666   1.603697
H    9.861989  -1.968830  -1.771089
H    5.888311   3.562550  -1.398681
H    6.052377   3.233397   1.961025

