%chk=mol_5969.chk
# wB97XD/Def2SVP opt pop=full gfinput

C 5 H 9 N 1 O 1

1 2
O    2.267898   0.432880   0.630337
C    4.871261   0.006633   0.105636
C    5.276380  -2.740405  -0.736199
C    4.769876  -2.725609  -3.596810
C    5.573521  -0.136174  -4.434715
N    3.846103   1.997176  -4.207570
C    5.649639   1.541544  -2.160335
H    1.525047   0.929670  -0.990387
H    5.974539   0.457370   1.794257
H    4.055919  -4.087988   0.247724
H    7.254413  -3.270549  -0.414115
H    5.850516  -4.211141  -4.546700
H    2.759340  -3.031688  -3.989949
H    7.074095  -0.065025  -5.815689
H    4.427988   3.472636  -5.310943
H    7.201500   2.833247  -1.881298

