%chk=mol_5316.chk
# wB97XD/Def2SVP opt pop=full gfinput

C 5 H 11 N 1 O 1

1 2
C    2.687682   2.523351   3.508296
O    5.269124   2.667178   2.778351
C    5.531549   2.633088   0.087230
C    8.312206   2.940830  -0.612838
C    9.277497   5.530170   0.016724
C   11.206983   6.794775  -1.654134
N    8.592188   7.668698  -1.593738
H    2.587507   2.592648   5.569779
H    1.852517   0.745667   2.862482
H    1.626827   4.127578   2.743901
H    4.395824   4.151823  -0.748634
H    4.843330   0.814170  -0.621833
H    8.545228   2.549826  -2.633900
H    9.452958   1.555150   0.425358
H    9.352368   5.878390   2.036085
H   11.786714   5.868885  -3.385104
H   12.603982   8.017258  -0.796274
H    8.420601   9.274001  -0.532090

