%chk=mol_5756.chk
# wB97XD/Def2SVP opt pop=full gfinput

C 4 H 4 N 2 O 1

1 2
N    1.735071  -0.045051   0.345102
C    4.310069  -0.001380   0.080370
C    5.780899   2.053981   0.130977
C    8.579999   1.991847  -0.138252
O    9.749437   3.999057  -0.080805
C    9.949465  -0.368440  -0.479745
N   10.975907  -2.291595  -0.759481
H    0.852077  -1.524102  -0.516028
H    0.833936   1.632478   0.071640
H    5.081020  -1.896586  -0.157528
H    4.992052   3.926719   0.395142

