%chk=mol_1257.chk
# wB97XD/Def2SVP opt pop=full gfinput

C 6 H 11 N 1

1 2
C    1.917826  -0.790057  -0.669908
C    4.645476  -0.048169  -0.793477
C    5.717612   2.101942   0.073794
C    4.252583   4.111798   1.493488
N    3.427188   6.133069  -0.194113
C    8.433867   2.446194  -0.339130
C    9.859948   4.417877   0.359010
H    1.696691  -2.438049   0.557961
H    1.262583  -1.307294  -2.562790
H    0.677505   0.707079   0.016573
H    5.818448  -1.434605  -1.763001
H    5.389442   4.898151   3.035033
H    2.591589   3.311235   2.431170
H    4.967863   6.832248  -1.112387
H    2.714856   7.576385   0.858673
H    9.394641   0.921865  -1.339060
H    9.124542   6.048749   1.353611
H   11.866365   4.433675  -0.072528

