%chk=mol_6085.chk
# wB97XD/Def2SVP opt pop=full gfinput

C 4 H 7 N 1 O 2

1 2
O    2.698246   0.088571   1.730120
C    4.522927   0.064572   0.304529
N    5.639982  -2.160769  -0.365038
C    7.601083  -2.401086  -2.221675
C    9.260017  -0.084603  -2.183106
C    7.545525   2.184656  -2.474785
O    5.546686   2.223357  -0.634287
H    4.731459  -3.711101   0.289846
H    8.687544  -4.107301  -1.794427
H    6.694638  -2.650152  -4.065784
H   10.253824   0.026456  -0.367571
H   10.675385  -0.149496  -3.689123
H    8.637731   3.925188  -2.234979
H    6.679955   2.247508  -4.354685

