%chk=mol_3319.chk
# wB97XD/Def2SVP opt pop=full gfinput

C 6 H 8 O 1

1 2
C    2.002713   0.333385  -1.174068
O    4.402400   0.208928   0.030803
C    5.792256   2.375707  -0.019086
C    8.324055   2.473708   0.050947
C    9.155704   5.180627   0.007616
C    6.675949   6.562679  -0.069712
C    4.761108   4.899625  -0.075570
H    1.255931  -1.590450  -1.303552
H    2.162319   1.087953  -3.095164
H    0.673083   1.452689  -0.052515
H    9.566133   0.860884   0.130542
H   10.291279   5.589016  -1.670556
H   10.223494   5.661657   1.710939
H    6.485842   8.593019  -0.089875
H    2.781790   5.378539  -0.085888

