%chk=mol_6044.chk
# wB97XD/Def2SVP opt pop=full gfinput

C 5 H 9 N 1 O 1

1 2
O    1.752645  -0.047848  -0.140388
C    4.407824  -0.085699   0.300561
C    5.744654   2.358832  -0.634211
N    6.298438   2.349421  -3.358081
C    7.890155   0.189067  -4.046357
C    7.026455  -2.267104  -2.923350
C    5.412119  -2.408626  -0.973020
H    1.187787   1.688924  -0.000454
H    4.686181  -0.247006   2.345660
H    4.553881   4.003064  -0.228166
H    7.521431   2.611639   0.405686
H    7.206867   3.973055  -3.844988
H    9.851615   0.536399  -3.469934
H    7.882879   0.019842  -6.109560
H    7.737540  -3.993558  -3.781077
H    4.779892  -4.227808  -0.271232

