%chk=mol_3255.chk
# wB97XD/Def2SVP opt pop=full gfinput

C 5 H 8 O 2

1 2
C    2.751063  -0.240657   2.528246
C    5.106493   0.858540   1.300528
O    4.516672   1.934286  -1.105187
C    4.544281   0.426171  -3.195357
C    5.049159  -2.042303  -3.394232
C    6.029133   3.044878   2.898103
O    7.709327   2.853241   4.492314
H    3.165745  -0.959886   4.423641
H    1.966411  -1.784865   1.398265
H    1.264359   1.192153   2.698775
H    6.653159  -0.512891   1.184424
H    4.069034   1.554073  -4.842820
H    5.527317  -3.234682  -1.802289
H    4.991050  -2.947576  -5.235505
H    4.985589   4.836471   2.672923

