%chk=mol_1828.chk
# wB97XD/Def2SVP opt pop=full gfinput

C 5 H 10 N 2

1 2
C    1.666927   1.522156  -1.011722
N    4.278321   0.726184  -1.135593
C    6.249532   2.033969  -0.071243
N    6.155254   4.442954   0.372427
C    8.668722   0.785446   0.670928
C    9.300778  -1.599445   0.085567
C   11.743287  -2.781015   0.868632
H    0.469162   0.119185  -1.946021
H    1.381749   3.327127  -1.976389
H    1.049989   1.690776   0.954066
H    4.457921  -1.178282  -1.047494
H    4.478859   5.148389  -0.257645
H    9.948803   1.989976   1.732388
H    8.063216  -2.787497  -1.033075
H   12.906149  -1.503353   2.007645
H   12.831468  -3.327959  -0.803190
H   11.372901  -4.480957   1.988162

