%chk=mol_0774.chk
# wB97XD/Def2SVP opt pop=full gfinput

C 5 H 8 O 1

1 2
C    1.730328   0.558603  -0.512815
C    4.485719   0.280813  -1.121893
O    5.335491  -1.443732  -2.413237
C    6.202421   2.236094  -0.064837
C    7.820235   3.785386  -1.834924
C    5.692233   5.020813  -0.427059
H    0.854553   1.863157  -1.851988
H    1.491958   1.262375   1.414857
H    0.808141  -1.285732  -0.647760
H    7.097055   1.662846   1.690133
H    7.607678   3.485373  -3.851866
H    9.740612   4.199104  -1.253720
H    6.170239   6.287572   1.110554
H    4.058792   5.608329  -1.513841

