%chk=mol_0936.chk
# wB97XD/Def2SVP opt pop=full gfinput

C 4 H 5 N 1 O 1

1 2
C    0.455367  -2.565965   0.113913
O   -1.820373  -1.552656  -0.955483
N   -2.499560   0.864380  -0.010998
C   -0.604278   2.396589   0.210818
C    2.078321   1.764626  -0.198875
C    2.573618  -0.710934  -0.130618
H    0.908108  -4.280589  -0.949833
H    0.132356  -3.091138   2.089243
H   -0.969316   4.352984   0.825149
H    3.476813   3.240559  -0.360220
H    4.491917  -1.413685  -0.266603

