%chk=mol_4203.chk
# wB97XD/Def2SVP opt pop=full gfinput

C 4 H 5 N 1 O 2

1 2
C    1.800758  -0.167864  -0.011055
C    4.556073   0.180488  -0.006028
C    6.163795   2.215043  -0.006557
O    5.431659   4.627939  -0.012529
N    8.621252   1.462497  -0.000359
C    8.434471  -1.016408   0.003628
O    6.031174  -1.948194   0.000491
H    0.815738   1.650052   0.005650
H    1.202263  -1.236863   1.654890
H    1.204946  -1.204965  -1.697957
H    6.976982   5.624146  -0.011338
H    9.942813  -2.395077   0.009052

