%chk=mol_4459.chk
# wB97XD/Def2SVP opt pop=full gfinput

C 5 H 13 N 1 O 1

1 2
C    2.642782  -1.680250   3.470671
C    5.480546  -1.411701   3.100549
C    6.090361   0.307364   0.859485
N    8.835225   0.546849   0.584020
C    9.465336   2.248944  -1.526861
C   12.345637   2.443737  -1.783240
O   13.407532  -0.017234  -2.034252
H    2.243842  -2.915658   5.080925
H    1.749773  -2.500845   1.794484
H    1.766724   0.157131   3.839791
H    6.305336  -3.289031   2.800820
H    6.314463  -0.645341   4.836282
H    5.237244   2.171163   1.165942
H    5.274585  -0.497905  -0.866780
H    9.572464   1.262753   2.218841
H    8.662958   4.135023  -1.231591
H    8.694366   1.460040  -3.279733
H   13.179347   3.341168  -0.114706
H   12.858963   3.555312  -3.450281
H   12.316271  -1.107871  -1.012440

