%chk=mol_3794.chk
# wB97XD/Def2SVP opt pop=full gfinput

C 5 H 4 O 2

1 2
O    5.168080  -1.980187   1.573688
C    4.169001   0.039363   1.072004
O    5.308392   2.288458   0.516916
C    7.948434   2.273832   0.523246
C    9.274983   4.358200   0.000000
C   11.931939   4.358200   0.000000
C   14.181015   4.358200   0.000000
H    2.108840   0.325543   0.997681
H    8.807730   0.471940   0.976818
H    8.303533   6.109862  -0.441421
H   16.194046   4.353627   0.001134

