%chk=mol_5278.chk
# wB97XD/Def2SVP opt pop=full gfinput

C 5 H 11 N 1 O 1

1 2
C    2.931287  -1.125899  -1.879578
O    4.296897  -0.162365   0.221381
C    5.731086   2.152152  -0.152539
C    8.067279   1.642815  -1.768765
C    4.212785   4.569811  -0.840456
N    5.655704   6.012712   1.066221
C    6.331414   3.610397   2.327311
H    1.729893  -2.671582  -1.219724
H    4.233553  -1.867862  -3.300482
H    1.730214   0.334538  -2.711209
H    9.281182   3.313068  -1.919244
H    7.539214   1.095607  -3.692374
H    9.200018   0.114895  -0.953008
H    2.187830   4.464761  -0.413623
H    4.430671   5.257180  -2.779012
H    7.180015   6.938488   0.333782
H    8.286317   3.516195   2.996784
H    5.083590   3.142823   3.914681

