%chk=mol_5762.chk
# wB97XD/Def2SVP opt pop=full gfinput

C 4 H 7 N 1 O 2

1 2
N    0.839322   1.260202   0.210175
C    3.310989   0.496563   0.348258
C    5.354823   1.909852  -0.106051
C    7.930897   0.810560   0.140293
O    8.284389  -1.442296   0.599175
C   10.143634   2.619293  -0.223498
O   12.507984   1.385717   0.090310
H   -0.399545  -0.158756  -0.187631
H    0.522868   2.844756  -0.829722
H    3.502570  -1.476632   0.917330
H    5.211468   3.880855  -0.631641
H   10.020689   4.141618   1.167548
H   10.075472   3.401318  -2.135088
H   12.122064  -0.400074   0.392893

