%chk=mol_0836.chk
# wB97XD/Def2SVP opt pop=full gfinput

C 4 H 10 O 2

1 2
C    2.001466  -0.076628   0.381517
O    4.685595   0.036604   0.318891
C    5.561823   2.575602  -0.041102
C    8.458017   2.568761  -0.111399
C    9.623260   1.623690   2.344149
O    9.288874   0.960756  -2.118912
H    1.440179  -2.041792   0.685838
H    1.209160   0.565935  -1.417465
H    1.263528   1.069642   1.936421
H    4.875569   3.782514   1.494660
H    4.827419   3.270889  -1.848644
H    9.146463   4.480805  -0.511908
H    9.109028  -0.345877   2.717218
H    9.028752   2.782433   3.949528
H   11.688013   1.677056   2.222318
H    8.307349  -0.592750  -1.932188

