%chk=mol_0394.chk
# wB97XD/Def2SVP opt pop=full gfinput

C 5 H 13 N 1

1 2
C    1.830861  -0.252486   0.015193
C    4.726980  -0.006916  -0.009581
C    5.714985  -1.532833  -2.277838
N    5.554907   2.672526  -0.101648
C    4.585647   4.141996   2.042945
C    8.317705   2.912729  -0.164009
H    1.012118   0.469484   1.772110
H    1.258463  -2.237908  -0.125383
H    0.975514   0.764564  -1.572800
H    5.453012  -0.898867   1.718649
H    5.206952  -0.630205  -4.070546
H    4.915990  -3.443364  -2.284414
H    7.769779  -1.757842  -2.217083
H    2.526999   4.320386   1.966562
H    5.304745   6.086090   1.984685
H    5.121328   3.311273   3.860068
H    9.103132   2.153740  -1.919811
H    9.216875   1.960515   1.440217
H    8.882676   4.906069  -0.129919

