%chk=mol_0384.chk
# wB97XD/Def2SVP opt pop=full gfinput

C 4 H 10 N 2

1 2
C    7.000491  -2.138962  -1.787057
C    5.694387  -0.553180   0.226465
C    6.181446   2.268862  -0.089252
C    8.908169   2.907344   0.414455
N   10.291391   3.905535  -1.339835
N   12.687489   4.344801  -0.573059
H    6.483896  -4.130733  -1.569909
H    9.058912  -2.001107  -1.635218
H    6.445384  -1.535875  -3.686270
H    6.320095  -1.184235   2.097369
H    3.654031  -0.892707   0.118165
H    5.046627   3.317225   1.289077
H    5.642098   2.906777  -1.983060
H    9.640400   2.490942   2.327009
H   13.465924   5.702003  -1.711147
H   13.781754   2.785702  -0.916007

