%chk=mol_3584.chk
# wB97XD/Def2SVP opt pop=full gfinput

C 5 H 8 O 2

1 2
O    1.942865   0.070109  -0.051287
C    4.615259  -0.042368   0.019143
C    5.637450   2.115907   1.629284
C    8.293271   1.287527   2.339632
C    7.991576  -1.538842   2.469608
O    9.579456  -2.961579   3.372519
C    5.546365  -2.430471   1.326796
H    1.341592  -1.343198  -1.063595
H    5.353500   0.086814  -1.912856
H    4.471583   2.372702   3.325861
H    5.622691   3.918177   0.614104
H    9.654876   1.751606   0.855460
H    8.885643   2.066850   4.155413
H    5.871984  -3.953572  -0.028762
H    4.259745  -3.064115   2.815635

