%chk=mol_4467.chk
# wB97XD/Def2SVP opt pop=full gfinput

C 5 H 11 N 1 O 1

1 2
C    2.157897  -0.048623   0.152217
C    4.941653   0.194623  -0.595415
C    6.026034  -2.371814  -1.362587
N    5.279479   2.147542  -2.545027
C    4.771804   1.562048  -5.179645
C    5.654873   4.631057  -1.809337
O    5.832848   5.391332   0.367703
H    1.405937   1.766157   0.802964
H    1.925593  -1.420318   1.683765
H    0.996585  -0.669927  -1.443278
H    5.976070   0.815379   1.091411
H    4.987271  -3.202122  -2.947576
H    5.929904  -3.704241   0.217980
H    8.009321  -2.190136  -1.923722
H    6.183789   0.215240  -5.860664
H    4.865932   3.261611  -6.353335
H    2.881039   0.745743  -5.350986
H    5.826612   5.937104  -3.423711

