%chk=mol_0866.chk
# wB97XD/Def2SVP opt pop=full gfinput

C 4 H 8 O 2

1 2
O    1.898589   0.053101  -0.065970
C    4.571248   0.031351  -0.010601
C    5.601810   2.129079   1.620138
C    8.223144   1.164204   2.225530
O    8.076973  -1.547024   2.297283
C    5.673166  -2.285454   1.280913
H    1.348924  -1.396205  -1.054297
H    5.297072   0.208645  -1.942714
H    4.474191   2.322644   3.348576
H    5.611901   3.971278   0.683646
H    9.572483   1.679456   0.742889
H    8.931582   1.869619   4.034358
H    5.933305  -3.858140  -0.035980
H    4.474342  -2.949976   2.832888

