%chk=mol_6598.chk
# wB97XD/Def2SVP opt pop=full gfinput

C 4 H 6 N 2 S 1

1 2
C    5.529037  -2.241915   0.901815
N    4.486191   0.144583   0.063551
C    5.860116   2.314404   0.026853
C    4.781423   4.656512  -0.331137
S    7.108243   6.905362  -0.261066
N    9.482816   4.908658   0.214692
C    8.533626   2.578739   0.310104
H    4.111553  -3.732341   0.679394
H    6.057801  -2.155157   2.899860
H    7.181489  -2.778105  -0.221570
H    2.566361   0.230981   0.116256
H    2.826199   5.156099  -0.621588
H    9.870474   1.060250   0.598835

