%chk=mol_1632.chk
# wB97XD/Def2SVP opt pop=full gfinput

C 7 H 12

1 2
C    1.532870   0.057693   0.209344
C    4.055806   0.148551   0.390682
C    5.690362   2.473576   0.328812
C    4.372486   5.045852   0.255056
C    6.502113   6.871460   0.885922
C    8.093848   5.494965   2.857738
C    7.374694   2.700589   2.676155
H    0.549702  -1.742894   0.264977
H    0.381479   1.739984  -0.003685
H    5.067111  -1.635747   0.576763
H    6.915887   2.320735  -1.341233
H    2.887634   5.182668   1.695009
H    3.531501   5.453107  -1.589883
H    7.644830   7.235610  -0.804400
H    5.799796   8.689679   1.575654
H   10.112076   5.785038   2.505682
H    7.688540   6.209130   4.758463
H    9.052185   1.495756   2.532516
H    6.354885   2.135863   4.391497

