%chk=mol_0904.chk
# wB97XD/Def2SVP opt pop=full gfinput

C 6 H 12

1 2
C    1.783051  -0.269380  -0.002154
C    4.623271  -0.020069  -0.006557
C    5.952089  -2.548749  -0.016138
C    5.915731   2.191478  -0.002098
C    4.731477   4.787697   0.004101
C    8.771542   2.332961  -0.004554
H    0.766492   1.521796   0.021940
H    1.172821  -1.333070   1.665945
H    1.164695  -1.296730  -1.689888
H    4.600803  -4.117600  -0.007105
H    7.136437  -2.762761   1.666984
H    7.113364  -2.760625  -1.715550
H    2.671582   4.788944  -0.019294
H    5.354917   5.850800  -1.659369
H    5.321167   5.827103   1.694517
H    9.700002   0.489288  -0.002986
H    9.431283   3.351959   1.672086
H    9.428524   3.347782  -1.684842

