%chk=mol_1586.chk
# wB97XD/Def2SVP opt pop=full gfinput

C 5 H 10 N 2

1 2
C    2.267123   0.272801   1.003558
C    4.915820   0.391740  -0.084131
N    5.695842  -1.469130  -1.474138
N    6.377164   2.473160   0.479272
C    5.323642   4.936872   0.046166
C    7.964629   5.787853  -0.759311
C    8.553146   2.976734  -1.069793
H    2.100544   1.490125   2.664948
H    1.813438  -1.666039   1.558759
H    0.920089   0.893330  -0.435865
H    4.320141  -2.821947  -1.636881
H    4.581036   5.814517   1.760771
H    3.914190   4.986685  -1.469281
H    8.054466   6.920498  -2.484064
H    9.048614   6.721775   0.737182
H    8.393918   2.307828  -3.021937
H   10.316978   2.324930  -0.218433

