%chk=mol_5828.chk
# wB97XD/Def2SVP opt pop=full gfinput

C 4 H 8 N 2 O 1

1 2
N    2.904774  -2.060142  -1.214924
C    3.830796  -0.479121   0.590766
N    3.144126  -0.627937   2.922178
C    5.805673   1.453918  -0.155751
C    8.448323   0.415381   0.296233
C    9.162262  -1.634537  -1.557777
O    7.777792  -2.428052  -3.245094
H    4.112384  -2.339179  -2.705842
H    2.174319  -3.716316  -0.602218
H    1.783372  -1.987141   3.101967
H    5.520684   3.149890   0.999552
H    5.532740   1.990411  -2.137431
H    8.633573  -0.366701   2.203591
H    9.836705   1.934002   0.081277
H   11.074173  -2.427410  -1.299640

