%chk=mol_0342.chk
# wB97XD/Def2SVP opt pop=full gfinput

C 5 H 7 N 1

1 2
C    1.541752   0.035527   0.152104
C    4.350131   0.003250   0.460356
C    5.896361   1.786226  -0.473735
C    8.723580   1.775681  -0.172022
C    9.981496   1.761376  -2.649736
N   10.998414   1.766006  -4.596211
H    0.923830  -1.668779  -0.842572
H    0.890552   1.680382  -0.919654
H    0.630980   0.072660   2.008193
H    5.121725  -1.590847   1.506036
H    5.096988   3.373728  -1.513047
H    9.345830   0.138611   0.933695
H    9.282996   3.466948   0.883976

