%chk=mol_1371.chk
# wB97XD/Def2SVP opt pop=full gfinput

C 5 H 8 N 2

1 2
C    2.144934   0.309480   0.175707
C    4.952670  -0.234269  -0.164935
C    5.420831  -1.547327  -2.574695
N    5.730916  -2.575376  -4.488345
C    6.453245   2.179327  -0.362752
C    7.062265   3.678522   1.993340
N    9.022270   2.279274   0.660743
H    1.802270   1.325038   1.946512
H    1.049762  -1.447039   0.221098
H    1.399701   1.476500  -1.365875
H    5.618666  -1.399399   1.413780
H    6.088849   3.251349  -2.075732
H    6.524147   2.932345   3.822104
H    7.144223   5.720107   1.867390
H   10.138721   3.457707  -0.390153

