%chk=mol_0120.chk
# wB97XD/Def2SVP opt pop=full gfinput

C 4 H 4 S 1

1 2
S   -0.977952  -2.400179  -0.005272
C   -2.462143   0.474246  -0.036075
C   -0.767323   2.449482  -0.067936
C    1.785735   1.590072  -0.067010
C    1.940881  -1.008452  -0.034488
H   -4.503236   0.573834  -0.029329
H   -1.331917   4.417027  -0.090801
H    3.425979   2.815219  -0.089082
H    3.626744  -2.162943  -0.026399

