%chk=mol_3929.chk
# wB97XD/Def2SVP opt pop=full gfinput

C 5 H 7 N 1 O 1

1 2
C    1.696728  -0.009449  -0.005499
C    4.503047   0.018652  -0.006463
C    6.054305   2.118818  -0.004233
O    5.453655   4.554599  -0.000491
N    8.513915   1.294897  -0.006614
C    8.568830  -1.293291  -0.010488
C    6.110619  -2.138773  -0.010582
H    0.913607   1.904768   0.020598
H    0.988383  -1.012685   1.659312
H    0.987306  -0.968069  -1.695935
H    6.979647   5.572651   0.000756
H   10.060788   2.411253  -0.005801
H   10.343738  -2.306694  -0.012945
H    5.523972  -4.098835  -0.013304

