%chk=mol_6203.chk
# wB97XD/Def2SVP opt pop=full gfinput

C 5 H 6 N 2

1 2
C    1.906545  -0.049303  -0.136211
C    4.720630   0.037001   0.102650
C    6.001128   2.324892   0.150668
C    8.615299   2.297548   0.367703
C    9.809114  -0.015439   0.522755
N    8.535156  -2.217802   0.470769
N    5.964713  -2.188870   0.257570
H    1.219346  -2.000124  -0.074984
H    1.316157   0.785861  -1.933473
H    1.022474   0.990897   1.417861
H    4.986269   4.101386   0.022223
H    9.693048   4.038269   0.414039
H   11.843651  -0.178296   0.694890

