%chk=mol_5514.chk
# wB97XD/Def2SVP opt pop=full gfinput

C 4 H 6 N 2 O 1

1 2
N    2.216176  -0.187801   0.863302
C    4.502442  -0.008976   0.085567
C    5.955869   2.392185  -0.138082
C    8.431542   1.552675  -1.336641
C    8.250884  -1.282085  -1.405673
O    9.914505  -2.719410  -2.101923
N    5.917583  -1.998007  -0.612952
H    1.632742  -2.030624   0.855082
H    6.251403   3.203426   1.741156
H    4.942843   3.759875  -1.309523
H    8.612313   2.274796  -3.265692
H   10.060052   2.145689  -0.212424
H    5.396623  -3.828661  -0.575667

