%chk=mol_0601.chk
# wB97XD/Def2SVP opt pop=full gfinput

C 4 H 6 O 2

1 2
C    1.268611   2.289139  -0.521640
O   -1.436419   2.593876  -0.401491
C   -2.567571   0.120621  -0.564064
C   -0.616693  -1.701906   0.305361
O    1.346165  -2.307450  -1.455618
C    1.809847  -0.330400   0.332044
H    1.890992   2.609466  -2.468700
H    2.137961   3.703882   0.708647
H   -4.248048   0.094089   0.638066
H   -3.130218  -0.228732  -2.524013
H   -1.124935  -2.989528   1.794673
H    3.149569  -0.573097   1.842105

