%chk=mol_1279.chk
# wB97XD/Def2SVP opt pop=full gfinput

C 6 H 11 N 1

1 2
C    2.595879  -0.320309   1.884340
C    4.762110   0.000000   0.000000
C    4.050307  -0.886187  -2.679651
C    1.818502   0.521130  -3.870367
N    1.327551  -0.452948  -6.407268
C    5.672996   2.572238   0.000000
C    6.423746   4.692322   0.000000
H    3.243620   0.069221   3.813581
H    1.863005  -2.255332   1.845525
H    1.028635   0.976289   1.498798
H    6.307244  -1.229248   0.640088
H    3.607657  -2.914279  -2.607935
H    5.711206  -0.696629  -3.913188
H    2.205821   2.549467  -3.993766
H    0.108735   0.267226  -2.736928
H    2.873140  -0.155430  -7.519598
H   -0.105617   0.557299  -7.205791
H    7.099569   6.589626   0.004687

