%chk=mol_5273.chk
# wB97XD/Def2SVP opt pop=full gfinput

C 5 H 11 N 1 O 1

1 2
C    3.598322  -1.271767  -2.258941
O    3.231337   0.758801  -0.536399
C    5.523896   2.079077   0.165011
C    7.159851   0.685196   2.009705
C    6.673681   3.817228  -1.776021
C    5.184558   4.921093   0.369914
N    6.477660   6.458857   2.273530
H    4.670307  -0.658211  -3.915834
H    1.742705  -1.929410  -2.884932
H    4.565730  -2.840296  -1.325964
H    8.893240   1.715758   2.462540
H    7.730832  -1.147328   1.242930
H    6.126246   0.355174   3.769758
H    5.825912   3.907179  -3.637836
H    8.705363   4.061475  -1.789268
H    3.311178   5.630212  -0.102990
H    8.283161   5.868715   2.577114
H    5.571026   6.311572   3.968179

