%chk=mol_5600.chk
# wB97XD/Def2SVP opt pop=full gfinput

C 4 H 6 N 2 O 1

1 2
N    1.847906  -0.101459   0.161005
C    4.377475   0.093825   0.070506
C    5.939957   2.162981   0.021467
O    5.090261   4.551897   0.031105
C    8.467617   1.322941  -0.039004
C    8.383714  -1.283445  -0.032541
N    5.888405  -2.006644   0.029574
H    0.807026   1.506225  -0.045901
H    0.886962  -1.716193  -0.206207
H    6.514188   5.708617   0.017310
H   10.166406   2.458779  -0.079217
H    9.871721  -2.684772  -0.060093
H    5.254289  -3.803357   0.068389

