%chk=mol_3940.chk
# wB97XD/Def2SVP opt pop=full gfinput

C 5 H 7 N 1 O 1

1 2
C    1.637467  -0.150120   0.017423
C    4.435225  -0.031540   0.024850
C    5.959875   2.081118   0.118920
N    5.478052   4.558228   0.211612
O    8.432695   1.423266   0.097642
C    8.527994  -1.136406  -0.000945
C    6.127078  -2.125375  -0.049511
H    0.786939   1.735487   0.034639
H    0.956617  -1.172537   1.682650
H    0.963647  -1.136821  -1.671860
H    6.936145   5.752459  -0.142089
H    3.762879   5.230913  -0.307175
H   10.399768  -1.951369  -0.021940
H    5.646464  -4.108907  -0.124457

