%chk=mol_1488.chk
# wB97XD/Def2SVP opt pop=full gfinput

C 5 H 12 N 2

1 2
C    5.945626  -2.169708  -0.921336
C    4.599404   0.119336   0.207133
N    3.639159  -0.496318   2.727801
C    6.371287   2.336514   0.427248
C    7.011904   3.912791  -1.878501
N    5.384793   4.904747   0.105163
C    6.615100   6.741239   1.751965
H    6.642954  -1.742705  -2.823232
H    4.666735  -3.791074  -1.065484
H    7.577802  -2.734528   0.222345
H    2.988111   0.608000  -1.001215
H    5.063143  -1.174540   3.826979
H    2.344659  -1.912214   2.584087
H    7.864625   2.029301   1.797772
H    6.080175   3.489096  -3.653540
H    8.908566   4.661576  -2.057496
H    5.692573   6.741655   3.604124
H    6.408931   8.636918   0.948983
H    8.637768   6.400125   2.050958

