%chk=mol_4399.chk
# wB97XD/Def2SVP opt pop=full gfinput

C 5 H 11 N 1 O 1

1 2
C    1.318046   1.257745   0.820632
C    4.110022   1.218817   1.226262
C    5.774039   2.443000  -0.250615
C    8.579527   2.390636   0.122227
O    9.684657   1.490446  -2.170029
C    9.665741   5.037802   0.706266
N   12.449289   4.960493   0.769497
H    0.370065   1.963444   2.518589
H    0.632643  -0.659155   0.445031
H    0.771575   2.463315  -0.768722
H    4.780648   0.096319   2.811213
H    5.100768   3.527495  -1.861305
H    9.111579   1.069037   1.626827
H   11.410393   2.152870  -2.130099
H    8.937762   5.751325   2.507308
H    9.119554   6.369416  -0.784217
H   13.014298   3.907708   2.285114
H   13.106649   6.743488   1.102107

