%chk=mol_7101.chk
# wB97XD/Def2SVP opt pop=full gfinput

C 6 H 9 N 1

1 2
C    1.125993   0.054103  -0.344195
C    3.936545   0.068937  -0.626142
C    5.471418   1.699544   0.563743
C    8.297523   1.721011   0.259478
C    9.636867   1.143908   2.751744
C   12.392427   1.185822   2.420172
N   14.566916   1.221708   2.158615
H    0.499833  -1.787095   0.358670
H    0.232606   0.388943  -2.178722
H    0.463795   1.505658   0.972132
H    4.722425  -1.348792  -1.891899
H    4.665961   3.126533   1.808638
H    8.865367   3.590423  -0.436187
H    8.886437   0.356724  -1.188316
H    9.054509  -0.715129   3.458312
H    9.094987   2.533877   4.190184

