%chk=mol_2387.chk
# wB97XD/Def2SVP opt pop=full gfinput

C 7 H 10

1 2
C    1.699525  -1.045907   0.008542
C    4.452799  -0.401945   0.159625
C    5.555530   1.891370  -0.084868
C    3.973168   4.154922  -0.212953
C    4.596362   6.269922  -1.457848
C    8.307822   2.098446   0.186478
C   10.032424   0.439324  -0.642677
H    1.451461  -2.722283  -1.179340
H    0.548039   0.455670  -0.819744
H    0.971622  -1.481564   1.893959
H    5.641211  -2.051846   0.475568
H    2.178533   4.105695   0.788186
H    6.349272   6.438391  -2.509065
H    3.330945   7.883295  -1.466201
H    8.970624   3.815981   1.106472
H    9.517360  -1.279288  -1.633328
H   12.032548   0.798542  -0.364774

