%chk=mol_6204.chk
# wB97XD/Def2SVP opt pop=full gfinput

C 5 H 7 N 1 O 1

1 2
O    1.819768   0.713069  -0.301203
C    4.365759   0.019219   0.338847
C    5.502807  -1.544190  -1.828253
C    4.229132  -4.076252  -2.124147
C    5.410248  -6.304013  -1.914576
C    5.917545   2.291217   0.806082
N    7.110114   4.088706   1.216341
H    1.212354   1.837041   1.023022
H    4.278359  -1.120022   2.067493
H    7.536814  -1.810452  -1.518395
H    5.291290  -0.521734  -3.620867
H    2.217405  -4.045261  -2.562431
H    7.415626  -6.439714  -1.503447
H    4.379705  -8.061174  -2.170010

