%chk=mol_6706.chk
# wB97XD/Def2SVP opt pop=full gfinput

C 3 H 7 N 1 O 2 S 1

1 2
O    1.901783  -0.427626   0.770668
S    4.421014  -0.041801  -0.192506
O    4.988707   0.296574  -2.839918
C    6.002186   2.317938   1.633725
C    8.549367   1.151278   2.252024
C    8.018958  -1.626053   2.804165
N    6.280788  -2.501865   0.792022
H    4.892482   2.641894   3.347839
H    6.160450   4.059321   0.539857
H    9.799647   1.303571   0.605071
H    9.471383   2.099354   3.840302
H    9.762533  -2.734963   2.770490
H    7.101874  -1.863383   4.643548
H    7.203976  -3.200950  -0.756646

