%chk=mol_4190.chk
# wB97XD/Def2SVP opt pop=full gfinput

C 5 H 7 N 1 O 1

1 2
C    2.056513   0.160381   0.297632
C    4.436680  -0.244587  -0.452174
O    5.144666  -2.659544  -1.242816
C    7.679847  -2.409325  -2.246922
C    8.594475   0.223706  -1.758296
N    7.461716   2.400803  -3.020482
C    6.461087   1.624881  -0.573645
H    1.431619   2.017132   0.889362
H    0.691394  -1.366518   0.293588
H    8.879086  -3.801222  -1.296352
H    7.632132  -2.836706  -4.271254
H   10.486487   0.384616  -1.017599
H    8.558778   3.973414  -2.823950
H    6.827996   2.791957   1.064445

