%chk=mol_6126.chk
# wB97XD/Def2SVP opt pop=full gfinput

C 4 H 8 N 2 O 1

1 2
O    4.206568  -1.485136   0.484979
C    3.510979   1.076747   0.061189
C    5.841578   2.627135  -0.218698
C    7.030537   3.002983  -2.762950
N    5.669405   5.071515  -1.518584
N    7.431858   6.586924  -0.472261
C    6.720395   8.919262  -0.458807
H    2.647374  -2.412368   0.776942
H    2.413483   1.735033   1.686751
H    2.310700   1.154698  -1.623369
H    7.063475   2.486955   1.419373
H    6.111337   2.206633  -4.406407
H    9.071460   3.110489  -2.879678
H    7.978839  10.370136   0.344554
H    4.889855   9.581252  -1.215113

