%chk=mol_2959.chk
# wB97XD/Def2SVP opt pop=full gfinput

C 6 H 12 O 1

1 2
C    2.232220  -1.512896   1.300472
C    5.023912  -1.560574   0.618243
C    6.041360   1.108022   0.134189
C    8.882790   1.100331  -0.454574
O    9.334945  -0.353209  -2.674397
C   10.088473   3.637005  -0.891535
C    8.973478   5.911026  -0.911377
H    1.541998  -3.435163   1.623294
H    1.111745  -0.674651  -0.221986
H    1.910513  -0.417365   3.024469
H    5.284071  -2.740311  -1.064634
H    6.084597  -2.448367   2.161053
H    5.672202   2.288250   1.798263
H    4.991957   1.920737  -1.459681
H    9.889996   0.175215   1.101181
H    8.583079   0.569261  -4.074779
H   12.121043   3.563287  -1.221028
H    6.963792   6.162189  -0.597494
H   10.081462   7.606431  -1.249997

