%chk=mol_5927.chk
# wB97XD/Def2SVP opt pop=full gfinput

C 5 H 9 N 1 O 1

1 2
O    3.013981  -0.535624  -1.566583
C    5.261829   0.077384  -0.208078
C    6.676289  -2.027790   1.050688
C    7.719909  -0.837829  -1.296333
N    9.581667   1.252586  -1.209274
C    8.056167   3.564439  -0.861016
C    5.637620   2.777671   0.532034
H    1.516827  -0.264656  -0.537136
H    5.920607  -3.924375   0.884845
H    7.604523  -1.662940   2.836895
H    7.655318  -1.904806  -3.045521
H   10.732095   1.025082   0.318910
H    9.100392   5.032775   0.154296
H    7.570356   4.309426  -2.732204
H    5.896078   2.924106   2.582821
H    4.041860   3.976097  -0.013360

