%chk=mol_0878.chk
# wB97XD/Def2SVP opt pop=full gfinput

C 4 H 8 O 2

1 2
O    4.041368  -0.749012  -2.512334
C    4.390798   0.088855   0.016686
C    5.885155   2.524939  -0.031672
C    4.440289   4.878196  -0.893538
O    4.640808   6.019080   1.582759
C    6.087677   3.896880   2.505909
H    3.090723  -2.321566  -2.436726
H    5.422097  -1.377232   1.048949
H    2.532346   0.334878   0.893689
H    7.721704   2.309094  -0.968371
H    2.464297   4.598403  -1.433036
H    5.395697   6.019609  -2.327954
H    7.999986   4.466595   3.046465
H    5.154890   2.993175   4.114501

