%chk=mol_3437.chk
# wB97XD/Def2SVP opt pop=full gfinput

C 5 H 10 O 2

1 2
C    1.717024   2.881908  -2.561392
O    4.391667   2.650058  -2.502678
C    5.366520   3.080650  -0.030765
C    8.175938   2.830054  -0.187631
C    9.818810   4.645703   0.478365
C   12.621519   4.400265   0.284857
O   13.510748   6.274212  -1.412079
H    1.076955   2.534331  -4.494355
H    1.142717   4.790002  -2.009535
H    0.841703   1.484890  -1.313794
H    4.619587   1.655211   1.272409
H    4.805630   4.962100   0.630110
H    8.865480   1.038197  -0.920202
H    9.128038   6.443796   1.196140
H   13.213551   2.543590  -0.409182
H   13.497785   4.715622   2.130496
H   12.559611   6.058500  -2.971368

