%chk=mol_6129.chk
# wB97XD/Def2SVP opt pop=full gfinput

C 5 H 7 N 1 O 1

1 2
O    1.877216  -0.100760   0.156942
C    4.181076   0.013757  -0.035149
C    5.547442   2.416695   0.039798
C    8.040483   2.681899  -0.235006
N    8.753778   5.174448  -0.076043
C    6.499165   6.791563  -0.088118
C    4.295820   4.932299   0.381309
H    5.353518  -1.690417  -0.284460
H    9.452637   1.236996  -0.564348
H   10.204294   5.696750  -1.225393
H    6.300366   7.715979  -1.930374
H    6.613474   8.239470   1.383355
H    2.761173   5.248185  -0.967899
H    3.557844   5.130966   2.304464

