%chk=mol_4257.chk
# wB97XD/Def2SVP opt pop=full gfinput

C 5 H 7 N 1 O 1

1 2
C    1.831447  -0.223895  -0.025417
C    4.688146   0.072339   0.051306
C    5.478845   2.762194   0.026910
C    6.029171   4.339473   2.021516
O    6.664781   6.644825   1.069925
C    6.463109   6.332661  -1.474856
N    5.765876   4.066010  -2.206954
H    1.315835  -2.227307  -0.014419
H    1.036212   0.636006  -1.732199
H    0.942104   0.678393   1.611615
H    5.522214  -0.900606  -1.577865
H    5.428597  -0.860147   1.746693
H    6.060050   4.148988   4.052310
H    6.890905   7.959507  -2.633825

