%chk=mol_2283.chk
# wB97XD/Def2SVP opt pop=full gfinput

C 6 H 8 O 1

1 2
C    1.820298   0.023773   0.842648
C    4.264091   0.008712   0.183133
C    5.823153  -2.333453  -0.359955
C    8.018070  -1.444733  -1.928503
O    9.913258  -0.015798  -0.626236
C    8.023626   1.376212  -1.977126
C    5.832451   2.324854  -0.437018
H    0.796312   1.784166   1.091676
H    0.789528  -1.722240   1.150087
H    4.716927  -3.742055  -1.393314
H    6.509388  -3.170034   1.406523
H    8.505299  -2.544913  -3.570449
H    8.513745   2.417602  -3.653445
H    6.521407   3.216881   1.299036
H    4.731194   3.702654  -1.517658

