%chk=mol_3103.chk
# wB97XD/Def2SVP opt pop=full gfinput

C 5 H 8 O 2

1 2
C    1.153564  -0.149780   0.205602
C    3.936224  -0.698424   0.085000
C    4.828534  -3.054856   0.394499
O    5.359698   1.431883  -0.366928
C    8.023966   1.142831  -0.592807
C    9.092436   3.738256  -1.071758
O   10.796742   4.169908  -2.589303
H    0.762580   1.222162   1.704250
H    0.032825  -1.846074   0.590256
H    0.507580   0.644586  -1.592359
H    3.548698  -4.622648   0.739903
H    6.817300  -3.529687   0.317039
H    8.503862  -0.083375  -2.188908
H    8.837852   0.442763   1.176014
H    8.377553   5.248280   0.175858

