%chk=mol_5499.chk
# wB97XD/Def2SVP opt pop=full gfinput

C 5 H 9 N 1 O 1

1 2
N    1.865160  -0.004573  -0.025360
C    4.619039  -0.028894   0.005310
C    5.694973  -2.161998   1.646273
C    7.252523  -0.537514   3.445519
C    8.616735   1.478030   1.803989
C    5.786984   2.194822   1.456299
O    5.541735   1.581455   4.219437
H    1.198181  -1.587786  -0.889211
H    1.222124   1.502370  -1.034190
H    5.340744  -0.124476  -1.932793
H    6.862351  -3.469745   0.549136
H    4.248520  -3.240276   2.659071
H    8.285466  -1.382032   5.015428
H    9.632898   0.803833   0.138555
H    9.767730   2.847137   2.838671
H    5.336681   4.150972   0.987684

