%chk=mol_4547.chk
# wB97XD/Def2SVP opt pop=full gfinput

C 5 H 9 N 1 O 1

1 2
C    4.233194  -0.482126   0.930369
C    4.653980  -0.556827  -1.923458
C    2.492435  -1.888366  -3.259683
O    0.622740  -2.763214  -2.200359
C    4.986704   2.076847  -2.950184
C    7.601669   3.139723  -3.355681
N    6.015811   2.411064  -5.491488
H    5.820148   0.439191   1.887232
H    4.036398  -2.392941   1.701850
H    2.514035   0.568902   1.411455
H    6.347382  -1.695406  -2.297831
H    2.722358  -2.090132  -5.324360
H    3.476151   3.353791  -2.412065
H    9.231841   1.949045  -3.016211
H    7.904517   5.144269  -3.077778
H    5.269275   3.977004  -6.346759

