%chk=mol_0067.chk
# wB97XD/Def2SVP opt pop=full gfinput

C 4 H 8 O 1

1 2
C    1.683141  -0.236065  -0.156432
C    4.520565   0.111928   0.164520
O    5.799248  -1.356370  -1.688640
C    5.288096   2.822854  -0.158019
C    6.501451   4.179129   1.603206
H    0.623080   0.842497   1.255364
H    1.180361  -2.236000   0.029536
H    1.059891   0.354305  -2.041925
H    5.088560  -0.607698   2.020363
H    5.480735  -0.592108  -3.326391
H    4.817441   3.730244  -1.940616
H    7.028893   3.368758   3.413015
H    7.010960   6.136130   1.257707

