%chk=mol_6879.chk
# wB97XD/Def2SVP opt pop=full gfinput

C 5 H 8 N 2

1 2
C    1.780500   0.130278  -0.316831
C    4.585572  -0.147418   0.216903
N    5.040429  -2.328880   1.824625
C    6.395533  -1.604453   3.891967
N    7.368798  -3.105425   5.525200
C    6.686550   1.149520   4.004481
C    5.622597   1.945284   1.847604
H    1.081528  -1.492052  -1.395960
H    1.402630   1.843768  -1.414290
H    0.671514   0.234099   1.430145
H    5.669972  -0.293191  -1.540013
H    5.533137  -3.965590   0.973341
H    6.873879  -4.917086   5.066318
H    7.599269   2.182747   5.493188
H    5.535537   3.909201   1.291873

