%chk=mol_5126.chk
# wB97XD/Def2SVP opt pop=full gfinput

C 6 H 11 N 1

1 2
C    2.537883  -0.308970  -0.676673
C    5.188432   0.218396   0.155222
C    6.791524  -1.933927   1.117036
N    7.293133  -0.839700  -1.367670
C    9.283922   1.111348  -1.359998
C    7.975041   3.603027  -0.740130
C    5.808225   2.862803   0.992730
H    1.859679   1.172556  -1.951634
H    1.281234  -0.373807   0.965310
H    2.379846  -2.116607  -1.671992
H    6.007156  -3.825240   1.104866
H    8.134062  -1.595477   2.628911
H   10.767641   0.681964   0.022412
H   10.186984   1.211088  -3.219016
H    9.247091   4.979825   0.130712
H    7.216619   4.437701  -2.480058
H    6.402184   2.876428   2.976167
H    4.216716   4.171911   0.793950

