%chk=mol_4636.chk
# wB97XD/Def2SVP opt pop=full gfinput

C 4 H 10 N 2 O 1

1 2
C    7.143467  -5.701530   3.965420
C    4.397468  -4.879726   4.089538
C    3.375315  -4.170966   1.492959
O    0.785238  -3.439056   1.774774
N   -0.096489  -2.834684  -0.644132
C   -2.140720  -4.244646  -1.359223
N   -2.857342  -6.370248  -0.419160
H    7.832537  -6.189250   5.853106
H    8.336773  -4.187028   3.217126
H    7.364527  -7.362127   2.752311
H    4.202089  -3.267355   5.377197
H    3.243715  -6.399028   4.900098
H    3.503949  -5.793352   0.209571
H    4.458393  -2.589681   0.704754
H   -0.249274  -0.942274  -0.949550
H   -3.192503  -3.392852  -2.944741
H   -1.619835  -6.767298   1.024118

