%chk=mol_1227.chk
# wB97XD/Def2SVP opt pop=full gfinput

C 5 H 8 N 2

1 2
C    1.889726   0.000000   0.000000
C    4.618491   0.000000   0.000000
C    6.867567   0.000000   0.000000
C    9.596332   0.000000   0.000000
C   10.635643   2.678025  -0.155241
N   10.957540   3.795931  -2.454471
N   11.179639   3.985187   1.842237
H    1.145269   1.929221   0.021713
H    1.145023  -0.983319   1.659841
H    1.145061  -0.945657  -1.681592
H   10.324254  -1.073913  -1.613807
H   10.329866  -0.899642   1.713982
H    9.696921   3.304829  -3.810047
H   11.183059   5.693669  -2.283016
H   10.812408   2.952829   3.441380

