%chk=mol_3401.chk
# wB97XD/Def2SVP opt pop=full gfinput

C 6 H 12 O 1

1 2
C    3.708474   0.575762   1.723468
O    6.356944   1.008377   1.811113
C    7.214596   2.348930  -0.363772
C   10.039492   2.715385  -0.150857
C   11.532640   0.294419  -0.104483
C   11.040592   5.057455  -0.047224
C   13.759776   5.797245   0.171587
H    3.160132  -0.446618   3.431988
H    3.217731  -0.576140   0.078405
H    2.681824   2.369546   1.669819
H    6.221753   4.163388  -0.482579
H    6.783153   1.262810  -2.075411
H   11.067823  -0.855819  -1.761943
H   11.081826  -0.798844   1.592699
H   13.574658   0.582338  -0.127934
H    9.756940   6.667426  -0.097094
H   15.056053   4.199463   0.291188
H   14.027248   6.949940   1.868108
H   14.302336   6.935370  -1.467920

