%chk=mol_4967.chk
# wB97XD/Def2SVP opt pop=full gfinput

C 5 H 9 N 1 O 1

1 2
C    1.923212  -0.100269   0.353152
N    4.656833   0.020560  -0.003798
C    5.774644   1.989598   1.655589
C    7.911471   0.109925   2.252553
C    5.952052  -1.950783   1.571515
C    6.885859  -4.243059  -0.003950
O    8.039349  -6.092345   0.818403
H    1.164090  -1.774302  -0.598231
H    1.029183   1.555245  -0.509319
H    1.342140  -0.177124   2.340747
H    4.654906   2.522180   3.318208
H    6.366865   3.709702   0.674235
H    9.528906   0.225255   0.962400
H    8.593454   0.109396   4.201863
H    4.872564  -2.575016   3.234758
H    6.424407  -4.160157  -2.035840

