%chk=mol_6656.chk
# wB97XD/Def2SVP opt pop=full gfinput

C 4 H 6 N 2 S 1

1 2
N    5.328045  -1.321920  -2.522406
C    4.503104  -0.076836  -0.189899
C    5.455734   2.594840  -0.091312
N    3.788107   4.464951   0.224764
S    5.303252   7.203107   0.283100
C    8.263489   5.955812  -0.044805
C    8.055298   3.366812  -0.219889
H    4.570038  -3.088908  -2.577416
H    7.235572  -1.546646  -2.488675
H    5.209219  -1.128148   1.447738
H    2.433382  -0.113440  -0.111116
H    9.933175   7.130013  -0.094562
H    9.644897   2.104229  -0.443216

