%chk=mol_4120.chk
# wB97XD/Def2SVP opt pop=full gfinput

C 4 H 10 N 2 O 1

1 2
C    1.843258   0.111135  -0.314432
C    4.667170  -0.085926   0.012491
N    5.532986  -0.034960   2.694126
C    6.259737  -1.568492  -1.875326
N    5.102960  -3.020330  -3.931783
C    6.297097   1.278173  -1.918488
O    8.511100   2.480058  -0.877645
H    1.286015   0.369309  -2.289366
H    1.107852   1.729270   0.749220
H    0.920127  -1.600900   0.394310
H    7.287162  -0.832991   2.834646
H    4.394312  -1.164109   3.768548
H    7.975721  -2.453904  -1.165489
H    3.724934  -2.028016  -4.839211
H    4.275865  -4.621646  -3.254827
H    5.378860   2.225039  -3.485581
H    8.172215   2.895873   0.888379

