%chk=mol_1501.chk
# wB97XD/Def2SVP opt pop=full gfinput

C 6 H 9 N 1

1 2
C    1.878180  -0.030519   0.313487
C    4.762110   0.000000   0.000000
N    5.882887  -1.335696   2.148354
C    5.468584  -1.457073  -2.356772
C    6.607030  -0.623780  -4.465650
C    5.672996   2.572238   0.000000
C    6.423746   4.692322   0.000000
H    0.939780   0.927572  -1.268743
H    1.286658   0.942142   2.047348
H    1.132210  -1.963350   0.397882
H    5.431035  -0.386203   3.759894
H    7.798087  -1.206571   1.988332
H    4.966049  -3.455119  -2.300024
H    7.178446   1.329951  -4.710955
H    6.994481  -1.912308  -6.013997
H    7.096432   6.590212  -0.004630

