%chk=mol_1839.chk
# wB97XD/Def2SVP opt pop=full gfinput

C 4 H 7 N 3

1 2
C    2.375650   0.371388   1.809451
N    4.617451   0.892234   0.327924
C    5.736056   3.239236   0.193149
N    4.507866   5.334357   0.459203
C    8.546947   3.436108  -0.400584
C   10.036354   1.905600   1.359204
N   11.186612   0.614822   2.707467
H    1.926387  -1.644515   1.705081
H    0.743173   1.418145   1.093622
H    2.686850   0.862188   3.794513
H    5.822435  -0.608832   0.299767
H    2.635015   4.969243   0.747859
H    9.139812   5.416711  -0.301865
H    8.832882   2.788423  -2.345301

