%chk=mol_3196.chk
# wB97XD/Def2SVP opt pop=full gfinput

C 6 H 8 O 1

1 2
C    1.889216  -0.108603   0.000680
C    4.762110   0.000000   0.000000
O    5.670596  -1.285089  -2.184599
C    5.672996   2.572238   0.000000
C    6.423746   4.692322   0.000000
C    7.310651   7.196871   0.000000
C    5.726588   9.165437   0.000283
H    1.094662   0.817477   1.672313
H    1.240303  -2.074428  -0.036623
H    1.102145   0.808104  -1.683028
H    5.479601  -1.019186   1.651318
H    5.287850  -0.215750  -3.629370
H    9.339140   7.509980   0.000321
H    3.690163   8.915558   0.001587
H    6.447028  11.085020   0.001209

