%chk=mol_6968.chk
# wB97XD/Def2SVP opt pop=full gfinput

C 5 H 4 N 2

1 2
C    1.751266   0.048717  -0.005310
C    4.018767   0.035810  -0.001134
C    6.706090   0.019407   0.003950
C    8.253341   2.101905   0.009335
N   10.664990   1.184046   0.012888
N   10.784629  -1.355123   0.010148
C    8.357428  -2.060822   0.004611
H   -0.261047   0.060774  -0.008976
H    7.871201   4.107169   0.010942
H   12.309374   2.170426   0.017253
H    7.902494  -4.055069   0.001436

