%chk=mol_2201.chk
# wB97XD/Def2SVP opt pop=full gfinput

C 5 H 8 O 2

1 2
C    1.606267   1.702605  -1.484644
O   -0.074361   1.965806   0.618318
C    1.208026  -0.416344   0.365813
C    2.947576  -1.028672   2.523843
C    2.016621  -0.685460   5.251152
C    2.978681  -3.364185   5.660882
O    3.380625  -3.714143   2.979191
H    0.773125   1.534325  -3.346403
H    3.360727   2.751177  -1.425458
H    0.088855  -2.041263  -0.179581
H    4.787413  -0.112552   2.219994
H   -0.029631  -0.474850   5.466770
H    2.989755   0.780400   6.331660
H    4.751055  -3.522185   6.711306
H    1.588220  -4.693059   6.412634

