%chk=mol_5037.chk
# wB97XD/Def2SVP opt pop=full gfinput

C 5 H 8 N 2

1 2
C    1.647218  -2.089792   1.761962
C    2.124071  -0.682116  -0.672894
C    1.703947   2.091152  -0.981051
N   -0.607282   2.906078   0.299881
N   -2.804580   1.576599   0.087948
C   -2.662095  -0.851870  -0.245683
C   -0.231718  -2.241366  -0.384200
H    2.788102  -3.747648   2.147504
H    1.136122  -1.032792   3.440568
H    3.609320  -1.373718  -1.898608
H    3.323027   3.149928  -0.247894
H    1.543604   2.536882  -2.996917
H   -0.236386   3.274744   2.156782
H   -4.415383  -1.959325  -0.428741
H   -0.316907  -3.999303  -1.434151

