%chk=mol_5491.chk
# wB97XD/Def2SVP opt pop=full gfinput

C 4 H 10 N 2 O 1

1 2
N    2.035821   0.261330  -0.671117
C    4.777965   0.062153  -0.256682
C    6.334286  -1.371582  -2.139548
C    6.552077   1.474289  -2.024426
N    5.367786   2.947066  -4.124554
C    8.928881   2.623564  -0.908146
O   10.391170   3.706169  -2.894531
H    1.337548   1.793010   0.271138
H    1.133325  -1.271086   0.073832
H    5.343654  -0.092313   1.713320
H    5.384208  -2.222904  -3.741696
H    7.893329  -2.498369  -1.435341
H    3.450848   2.697282  -3.945692
H    5.791821   2.087033  -5.800004
H   10.092819   1.228832   0.080068
H    8.435719   4.130374   0.421069
H    9.121330   4.484925  -3.989949

