%chk=mol_4248.chk
# wB97XD/Def2SVP opt pop=full gfinput

C 4 H 4 N 2 O 1

1 2
C    5.243026  -2.080362   0.805382
C    4.164200   0.147984   0.287730
C    5.601167   2.409080   0.184211
C    4.848603   4.852382  -0.311654
N    6.870477   6.439242  -0.215504
N    8.913857   5.098028   0.328245
O    8.166301   2.589170   0.584171
H    4.113707  -3.792076   0.876852
H    7.254073  -2.276874   1.170194
H    2.143913   0.245532  -0.063608
H    2.973616   5.538239  -0.727979

