%chk=mol_5910.chk
# wB97XD/Def2SVP opt pop=full gfinput

C 4 H 8 N 2 O 1

1 2
N    2.325913  -0.015590   1.135669
N    4.820011   0.316737   0.661669
C    5.528431   2.586714  -0.017631
C    3.721948   4.839797  -0.230490
O    2.479510   5.283882   2.102793
C    8.243250   3.117406  -0.575516
C    9.760038   1.326852  -1.516845
H    1.433622  -0.580165  -0.490686
H    2.128777  -1.562992   2.288420
H    2.307507   4.447395  -1.688376
H    4.738791   6.557501  -0.764338
H    1.938576   3.591141   2.635148
H    8.920754   5.016921  -0.216544
H    9.084783  -0.577633  -1.879862
H   11.729265   1.726832  -1.922891

