%chk=mol_2565.chk
# wB97XD/Def2SVP opt pop=full gfinput

C 7 H 10

1 2
C    1.609877   1.362379  -2.069269
C    4.432277   1.224467  -2.048369
C    5.877615   2.190608  -0.196078
C    8.732462   2.150489   0.000000
C   10.094482   0.606205  -2.031966
C    9.643348   4.722747   0.000000
C   10.394098   6.842812   0.000000
H    0.968182   2.388633  -3.746288
H    0.858200   2.321831  -0.398827
H    0.812885  -0.545980  -2.129778
H    5.285715   0.290375  -3.666371
H    4.935870   3.115138   1.384848
H    9.186091   1.278721   1.827365
H    9.791994   1.385320  -3.928041
H    9.453601  -1.362436  -2.028772
H   12.139071   0.595113  -1.695198
H   11.060303   8.743007  -0.004743

