%chk=mol_4514.chk
# wB97XD/Def2SVP opt pop=full gfinput

C 4 H 8 N 2 O 1

1 2
C    1.707991   0.274728  -0.009430
C    4.438003  -0.536172   0.118694
C    5.003749  -3.282228  -0.400471
N    6.116779   1.169533   0.674481
N    8.577505   0.457484   0.802453
C   10.409292   2.191780   1.381900
O   12.660145   1.673107   1.529129
H    1.525519   2.299513   0.360257
H    0.620208  -0.771122   1.401761
H    0.959962  -0.138498  -1.890425
H    3.262971  -4.304324  -0.840512
H    5.868866  -4.142601   1.266986
H    6.283660  -3.439264  -2.014807
H    9.141758  -1.343047   0.484790
H    9.659127   4.108246   1.704514

