%chk=mol_0402.chk
# wB97XD/Def2SVP opt pop=full gfinput

C 4 H 8 N 2

1 2
C    1.955640  -0.439475  -1.586954
C    4.109474  -0.347199  -0.260102
C    5.830297   1.891200  -0.119336
N    8.229663   1.136103  -1.173255
C   10.404795   2.402447  -0.711085
N   12.475707   2.120424  -1.938954
H    0.796312  -2.134011  -1.583307
H    1.294028   1.156456  -2.695108
H    4.675296  -1.995475   0.833898
H    6.041644   2.461519   1.863119
H    5.076787   3.504837  -1.174767
H    8.123838   0.137137  -2.801594
H   10.300519   3.752391   0.874924
H   12.243442   0.773994  -3.303714

