%chk=mol_3814.chk
# wB97XD/Def2SVP opt pop=full gfinput

C 5 H 7 N 1 O 1

1 2
C    1.420205  -0.132508   0.050040
C    4.098098   0.815247  -0.030141
C    1.938330   2.624584  -0.389529
C    1.316591   4.578882   1.494339
C    0.635534   6.671659  -0.247686
N    0.745988   6.157049  -2.630423
O    1.539087   3.601969  -2.903337
H    0.665146  -0.713447   1.861569
H    0.745818  -1.239982  -1.535478
H    5.233200   0.352094  -1.672823
H    5.149541   0.876795   1.724772
H    2.915129   5.148105   2.671884
H   -0.312391   4.109512   2.673641
H    0.072036   8.527823   0.493407

