%chk=mol_5856.chk
# wB97XD/Def2SVP opt pop=full gfinput

C 5 H 5 N 1 O 1

1 2
N    1.956358   0.074984   0.000000
C    4.520206  -0.069825  -0.000000
O    5.663528  -2.075826  -0.000000
C    5.857206   2.300987   0.000000
C    6.981744   4.248747   0.000000
C    8.310222   6.549734   0.000000
C    7.117729   8.777343   0.000000
H    1.032395   1.743310   0.000000
H    0.966822  -1.557210   0.000000
H   10.362275   6.484482  -0.000000
H    5.071345   8.914576   0.000000
H    8.184461  10.529158   0.000000

