%chk=mol_2505.chk
# wB97XD/Def2SVP opt pop=full gfinput

C 5 H 10 O 2

1 2
C    1.639772  -0.214465   0.313751
C    4.483356   0.009146  -0.071961
C    5.280235   0.023300  -2.837594
O    4.215620   2.150773  -4.097285
C    5.791103   2.041849   1.546457
O    7.389075   0.176330   2.749192
C    6.030683  -1.858054   1.535062
H    1.150409  -0.323389   2.323003
H    0.901418  -1.916541  -0.603900
H    0.645738   1.421584  -0.472148
H    4.670571  -1.697636  -3.814204
H    7.336881   0.155071  -3.033464
H    2.466225   1.750850  -4.495148
H    4.600954   3.003795   2.938505
H    6.911050   3.448221   0.525174
H    7.311464  -3.112398   0.503839
H    4.973514  -2.970593   2.922726

