%chk=mol_3151.chk
# wB97XD/Def2SVP opt pop=full gfinput

C 5 H 10 O 2

1 2
C    5.193005  -3.035108  -1.229040
C    3.835521  -0.623704  -0.457994
O    2.215685  -1.165205   1.624446
C    5.629437   1.471775   0.262974
C    7.448129   1.016786   2.387064
C    6.181238   3.558713  -1.612484
O    4.408164   3.899488   0.409825
H    6.512922  -2.691820  -2.784228
H    3.824900  -4.470695  -1.824172
H    6.244354  -3.852528   0.356365
H    2.623866  -0.024226  -2.028375
H    1.517790   0.456898   2.149544
H    8.410736   2.759756   2.954870
H    8.901253  -0.340094   1.818559
H    6.472047   0.272064   4.051346
H    5.433964   3.415000  -3.512850
H    7.963249   4.559115  -1.486213

