%chk=mol_2863.chk
# wB97XD/Def2SVP opt pop=full gfinput

C 6 H 10 O 1

1 2
C    1.794654   0.009978   0.029026
C    4.667189   0.016554   0.028913
C    5.720938   2.707637   0.000000
C    8.449702   2.707637   0.000000
C   10.698779   2.707637   0.000000
C   13.427544   2.707637   0.000000
O   14.351525   5.229080  -0.075891
H    1.083852  -1.931640   0.049908
H    1.050140   0.947660  -1.658367
H    1.050215   0.983678   1.695954
H    5.350041  -1.030279  -1.623653
H    5.350117  -0.994544   1.703550
H    5.018621   3.743944   1.651035
H    5.018640   3.708229  -1.672918
H   14.181148   1.697465  -1.639186
H   14.179900   1.805936   1.700943
H   13.422725   6.085636  -1.409736

