%chk=mol_0917.chk
# wB97XD/Def2SVP opt pop=full gfinput

C 4 H 2 O 2

1 2
O    4.854763  -1.880259   0.979596
C    3.966138   0.057958   0.099967
C    5.575882   2.345037  -0.456331
O    4.533170   4.214429  -1.338361
C    8.267873   2.375972   0.019937
C   10.504591   2.409930   0.412641
H    1.951974   0.308044  -0.357687
H   12.488048   2.436859   0.762013

