%chk=mol_5478.chk
# wB97XD/Def2SVP opt pop=full gfinput

C 5 H 9 N 1 O 1

1 2
N    1.998291  -0.025228  -0.056182
C    4.761675   0.021070   0.073076
C    5.949311   1.969926  -1.811246
C    5.123104   0.098285  -3.959751
C    6.088150  -1.797942  -1.884605
O    8.783201  -1.313246  -1.633064
C    8.806823   1.416633  -1.566602
H    1.161520   1.402744   0.930255
H    1.227472  -1.654304   0.629090
H    5.519059   0.002003   1.997157
H    5.290061   3.918026  -1.846792
H    6.237419   0.168620  -5.702022
H    3.124038   0.033391  -4.483621
H    5.571763  -3.787540  -1.982644
H    9.898385   2.147258  -3.162778
H    9.593422   2.069628   0.230188

