%chk=mol_0465.chk
# wB97XD/Def2SVP opt pop=full gfinput

C 4 H 6 N 2

1 2
C    1.867616   0.015363  -0.014759
N    4.588180   0.046676  -0.001946
C    6.108162   2.130572   0.006104
C    8.529695   1.186786   0.017291
N    8.508530  -1.404331   0.016195
C    6.107670  -2.037087   0.004479
H    1.153186   1.952956   0.004422
H    1.216417  -0.989895   1.667816
H    1.232744  -0.951042  -1.726057
H    5.383490   4.040631   0.003307
H   10.287084   2.234110   0.026078
H    5.380599  -3.949263   0.000227

