%chk=mol_5750.chk
# wB97XD/Def2SVP opt pop=full gfinput

C 5 H 9 N 1 O 1

1 2
N    1.852574  -0.201747  -0.037228
C    4.623328  -0.037606   0.092956
C    5.626451   2.707637   0.000000
C    4.615807   4.291341   2.222753
O    1.943905   4.621968   2.085521
C    8.355216   2.707637   0.000000
C   10.604293   2.707637   0.000000
H    1.341668  -2.061994   0.071545
H    1.276359   0.376547  -1.790213
H    5.418790  -1.135593  -1.475612
H    5.247996  -0.957675   1.842918
H    4.940368   3.564213  -1.761622
H    5.465900   6.179763   2.224000
H    5.065524   3.409349   4.042880
H    1.245122   2.932779   1.753231
H   12.619024   2.715839  -0.000888

