%chk=mol_1516.chk
# wB97XD/Def2SVP opt pop=full gfinput

C 6 H 11 N 1

1 2
C    1.743669  -0.137837   0.160513
C    4.622421  -0.166183  -0.073114
N    5.368107  -1.856372  -2.130931
C    5.639302   2.516907  -0.514610
C    8.529525   2.626209  -0.589009
C    9.417356   5.249433  -0.849810
C   10.149983   7.388206  -1.068489
H    1.151013   1.065598   1.736885
H    1.007621  -2.040224   0.515990
H    0.847542   0.583207  -1.561613
H    5.416824  -0.905254   1.691834
H    4.603146  -1.241871  -3.790602
H    4.627467  -3.610265  -1.829633
H    4.953520   3.752467   1.006374
H    4.866838   3.292470  -2.278991
H    9.256105   1.506849  -2.172202
H    9.308470   1.808260   1.147593
H   10.802979   9.281466  -1.266853

