%chk=mol_0613.chk
# wB97XD/Def2SVP opt pop=full gfinput

C 5 H 10 O 1

1 2
C    1.978940  -0.075400   0.083526
C    4.839362   0.083564   0.057334
C    5.884362   2.220239   1.662071
C    8.501292   1.256195   2.250399
C    8.038933  -1.545116   2.607463
O    5.903731  -2.201966   1.066977
H    1.337132  -1.682669  -1.051822
H    1.126579   1.650978  -0.669965
H    1.267666  -0.387091   2.002675
H    5.510668   0.259573  -1.895036
H    4.807841   2.425936   3.421689
H    5.880412   4.039422   0.681681
H    9.745998   1.565468   0.623024
H    9.365936   2.147371   3.901207
H    9.669105  -2.691707   2.060009
H    7.555068  -1.980981   4.571512

