%chk=mol_0417.chk
# wB97XD/Def2SVP opt pop=full gfinput

C 4 H 10 N 2

1 2
C    1.736261  -0.394008  -0.298766
C    4.618585  -0.211763  -0.370915
C    5.663074  -1.802685  -2.544044
N    5.353216   2.455624  -0.654960
N    7.858634   2.958404  -0.471770
C    8.410226   5.290893  -0.938684
H    0.961663   0.686103   1.288888
H    1.134497  -2.361024  -0.067784
H    0.884826   0.330872  -2.041925
H    5.362060  -0.936378   1.423096
H    4.989652  -1.116545  -4.378155
H    5.071779  -3.777147  -2.350196
H    7.732552  -1.775587  -2.570746
H    4.342458   3.512604   0.610079
H   10.394156   5.912802  -0.846635
H    6.994216   6.734870  -1.448059

