%chk=mol_0158.chk
# wB97XD/Def2SVP opt pop=full gfinput

C 4 H 5 N 1

1 2
C    1.751682  -0.022374   0.019880
C    4.573005   0.010356   0.034355
C    5.931888   2.150489   0.000000
C    8.588843   2.150489   0.000000
N   10.763937   2.150489   0.000000
H    1.069679  -1.975520  -0.081787
H    1.004597   0.989328  -1.623048
H    0.995735   0.821804   1.749546
H    5.519871  -1.816235   0.068692
H    5.000253   3.976022  -0.033656

