%chk=mol_2305.chk
# wB97XD/Def2SVP opt pop=full gfinput

C 6 H 8 O 1

1 2
C    1.965863  -0.046865   0.296385
C    4.471016   0.078254   0.003779
C    6.149528   2.346095   0.008957
C    8.378403   1.508228  -1.622519
C    8.745407  -1.310317  -1.103071
C    6.096313  -2.157765  -0.539611
O    5.381505  -4.348789  -0.457956
H    0.983319  -1.846943   0.200613
H    0.846144   1.634349   0.641279
H    6.781868   2.753369   1.939558
H    5.235486   4.030125  -0.769251
H    7.922337   1.792084  -3.626422
H   10.090231   2.595029  -1.216889
H    9.510954  -2.288534  -2.752405
H    9.932892  -1.631684   0.558698

