%chk=mol_3905.chk
# wB97XD/Def2SVP opt pop=full gfinput

C 5 H 7 N 1 O 1

1 2
C    1.942355   0.144262   0.073265
C    4.735559  -0.054745  -0.057108
C    6.194088  -2.118062  -0.075532
C    8.951898  -1.426214  -0.231454
C    8.762074   1.439858  -0.303188
O   10.504893   2.940130  -0.435960
N    6.220279   2.040772  -0.189218
H    1.054335  -1.724243   0.093919
H    1.210218   1.177602  -1.562426
H    1.365932   1.144002   1.789986
H    5.519134  -4.042578   0.010034
H    9.984935  -2.037370   1.447379
H    9.815937  -2.134767  -1.966449
H    5.604153   3.847634  -0.210440

