%chk=mol_5055.chk
# wB97XD/Def2SVP opt pop=full gfinput

C 5 H 11 N 1 O 1

1 2
C    3.285535  -1.002802   1.857242
N    5.859870  -0.668755   0.934829
C    6.178875   1.839573  -0.197117
C    8.862192   2.136638  -1.242382
C    9.256408   4.712504  -2.342297
C   10.670547   5.070513  -4.787073
O    7.962229   5.151431  -4.680757
H    3.096335  -2.880321   2.702819
H    1.905713  -0.855101   0.322236
H    2.826823   0.388509   3.317565
H    6.226270  -2.016413  -0.394480
H    5.830372   3.306662   1.224769
H    4.809844   2.114622  -1.728910
H    9.224226   0.676276  -2.670051
H   10.247910   1.851214   0.273443
H    9.273945   6.212399  -0.953499
H   11.527840   3.447711  -5.692460
H   11.652769   6.838144  -5.094116

