%chk=mol_1701.chk
# wB97XD/Def2SVP opt pop=full gfinput

C 5 H 12 N 2

1 2
C    4.082772  -1.050329  -2.487125
N    4.334597   0.133774  -0.011319
C    6.137774   2.244560  -0.172948
C    4.804402   4.700183  -1.029202
N    5.895567   6.043684   1.180399
C    8.284484   7.258419   0.505369
C    6.352069   3.570770   2.424349
H    2.701212  -2.584786  -2.375934
H    5.878503  -1.855069  -3.125229
H    3.403775   0.292945  -3.905402
H    4.845107  -1.209784   1.272768
H    7.957202   1.835056  -1.073818
H    2.731146   4.657287  -0.975571
H    5.365480   5.405051  -2.894191
H    9.225907   7.950871   2.214589
H    7.918293   8.904730  -0.695911
H    9.610845   6.021934  -0.495826
H    8.176619   3.352488   3.379511
H    4.870051   3.097998   3.796554

