%chk=mol_5556.chk
# wB97XD/Def2SVP opt pop=full gfinput

C 4 H 8 N 2 O 1

1 2
N    1.842162   0.040402  -0.056805
C    4.596910  -0.007162   0.068540
C    5.767047   2.134672   1.620610
N    8.179037   1.125842   2.325894
C    8.163806  -1.482944   2.341125
O    9.880508  -2.808398   3.113815
C    5.639434  -2.380091   1.359809
H    1.209122  -1.483038  -1.055922
H    1.254136   1.599370  -1.025233
H    5.352989   0.076572  -1.863251
H    4.706042   2.532006   3.352865
H    6.010444   3.876320   0.536739
H    9.602662   2.090642   3.161909
H    5.872607  -3.938076   0.024812
H    4.485057  -2.980741   2.968401

