%chk=mol_1280.chk
# wB97XD/Def2SVP opt pop=full gfinput

C 6 H 9 N 1

1 2
C    1.889726   0.000000   0.000000
C    4.618491   0.000000   0.000000
C    6.867567   0.000000   0.000000
C    9.596332   0.000000   0.000000
N   10.532558  -1.457376  -2.142250
C   10.567689   2.658108  -0.187158
C   11.971963   3.815055   1.578129
H    1.145231   1.929203   0.021902
H    1.145061  -0.983565   1.659690
H    1.145212  -0.945524  -1.681724
H   10.296210  -0.889041   1.735581
H    9.719372  -0.771311  -3.745192
H    9.880263  -3.258474  -1.965107
H   10.086527   3.706112  -1.888819
H   12.520267   2.865089   3.311254
H   12.612391   5.744900   1.307483

