%chk=mol_6056.chk
# wB97XD/Def2SVP opt pop=full gfinput

C 4 H 7 N 1 O 2

1 2
O    1.864366   0.033675   0.137175
C    4.542524  -0.027231  -0.008031
C    5.709297   2.135334   1.498591
N    8.039670   1.114031   2.411593
C    8.027009  -1.485835   2.435838
O    9.681370  -2.807132   3.340941
C    5.613810  -2.401426   1.237601
H    1.223258  -1.423890  -0.784123
H    5.120799   0.081391  -1.994436
H    4.543544   2.695713   3.114174
H    6.083010   3.798898   0.331231
H    9.402124   2.087845   3.333647
H    6.014167  -3.864207  -0.165294
H    4.357973  -3.159490   2.695052

