%chk=mol_7151.chk
# wB97XD/Def2SVP opt pop=full gfinput

C 6 H 11 N 1

1 2
C    1.889726   0.000000   0.000000
C    4.618491   0.000000   0.000000
C    6.867567   0.000000   0.000000
C    9.596332   0.000000   0.000000
C   10.721475   2.690101  -0.032825
C   10.148000   4.146324   2.403486
N   13.474523   2.570405  -0.383539
H    1.145420   1.929240   0.025965
H    1.145079  -0.986815   1.657781
H    1.144966  -0.942010  -1.683595
H   10.264539  -1.033435  -1.669762
H   10.303902  -1.039444   1.648994
H    9.925163   3.741922  -1.631174
H   10.879852   3.155767   4.068259
H    8.111782   4.407786   2.659582
H   11.004933   6.031817   2.356092
H   14.288672   1.713207   1.137577
H   14.191219   4.357992  -0.427380

