%chk=mol_5993.chk
# wB97XD/Def2SVP opt pop=full gfinput

C 6 H 9 N 1

1 2
C    1.872114   0.067558  -0.018274
N    4.605187   0.001134  -0.003439
C    6.112640   2.109747   0.015345
C    8.593058   1.331633   0.026513
C    8.582286  -1.338342   0.013398
C    6.092213  -2.135768  -0.005877
C    5.094626  -4.764661  -0.026853
H    1.225922   2.029453  -0.007521
H    1.186181  -0.899056   1.672918
H    1.205381  -0.874887  -1.730630
H    5.309941   3.990402   0.019370
H   10.230883   2.555118   0.042084
H   10.221208  -2.562903   0.016951
H    3.030799  -4.844313  -0.014589
H    5.775362  -5.794014   1.633819
H    5.755161  -5.758922  -1.716778

