%chk=mol_3840.chk
# wB97XD/Def2SVP opt pop=full gfinput

C 4 H 8 N 2 O 1

1 2
C    3.178954  -0.144262  -0.016327
C    1.470736  -2.277120   0.882275
N   -0.725787  -2.525279  -0.775506
N   -2.774836  -1.048099  -0.314507
C   -2.501090   1.340931   0.160835
O   -0.393535   2.801897   0.166277
C    1.739474   1.994398  -1.285751
H    4.587254  -0.873035  -1.351532
H    4.218114   0.589443   1.619798
H    2.551111  -4.043541   0.875057
H    0.867233  -1.970606   2.841638
H   -1.298771  -4.373223  -0.790832
H   -4.139899   2.495837   0.716187
H    2.990586   3.629181  -1.499781
H    1.124463   1.481904  -3.197624

