%chk=mol_6113.chk
# wB97XD/Def2SVP opt pop=full gfinput

C 4 H 5 N 1 O 2

1 2
O    3.015134  -0.516935  -1.880674
C    5.011232  -0.092086  -0.130656
C    5.441580   2.656048   0.038872
C    4.189806   4.770349  -0.806875
C    5.678741   6.791279   0.052572
N    7.699028   6.001770   1.341006
O    7.545752   3.387089   1.331293
H    2.812404  -2.337875  -2.006662
H    6.706241  -1.064483  -0.806403
H    4.460944  -0.860959   1.707783
H    2.460858   4.816383  -1.887421
H    5.388724   8.797525  -0.196645

