%chk=mol_4757.chk
# wB97XD/Def2SVP opt pop=full gfinput

C 4 H 9 N 1 O 2

1 2
C    3.064304  -3.368267   2.306089
C    5.066639  -1.879125   0.854761
N    6.886729  -3.640312  -0.287049
C    3.904495  -0.139840  -1.174068
O    2.525713  -1.571005  -3.037659
C   -0.026853  -1.461174  -2.896327
O   -1.282330  -0.340226  -1.320956
H    1.684124  -2.087448   3.166123
H    3.928249  -4.468522   3.833517
H    2.041528  -4.690281   1.084759
H    6.101283  -0.690676   2.199150
H    5.998992  -4.642282  -1.676697
H    7.462680  -4.927763   1.024326
H    5.410040   0.861507  -2.185676
H    2.725552   1.316043  -0.287786
H   -0.835939  -2.586109  -4.449077

