%chk=mol_3783.chk
# wB97XD/Def2SVP opt pop=full gfinput

C 5 H 8 O 2

1 2
O    1.039860   1.639432   0.163235
C    3.405702   2.134219  -0.999590
C    5.034022   3.908029   0.580184
O    4.103843   5.088088   2.363877
C    7.818061   4.042219  -0.133830
C    8.904994   6.614741   0.353889
C   10.006477   8.058189  -1.407147
H    0.712370   3.072109   1.288982
H    3.068348   3.005420  -2.843206
H    4.389002   0.333008  -1.246690
H    8.012401   3.540780  -2.133898
H    8.827874   2.622222   0.982884
H    8.766289   7.325542   2.282487
H   10.200270   7.448299  -3.356607
H   10.752580   9.908816  -0.921960

