%chk=mol_6826.chk
# wB97XD/Def2SVP opt pop=full gfinput

C 6 H 11 N 1

1 2
C    1.987576  -0.096489  -0.047716
C    4.797939  -0.066877  -0.183851
N    6.085674  -1.020169  -2.415032
C    6.160961   1.716438  -1.960345
C    8.649862   2.976904  -1.242268
C   11.213578   1.842823  -1.786471
C   10.366414   4.138727  -3.208755
H    1.330103   1.332427   1.294878
H    1.323659  -1.943375   0.604259
H    1.106737   0.294249  -1.879049
H    5.676661  -0.500248   1.614752
H    4.850984  -1.425043  -3.839375
H    4.972588   2.835874  -3.212742
H    8.527257   4.037570   0.521319
H   11.291227   0.061454  -2.796152
H   12.674053   2.061824  -0.368704
H   11.257250   5.927920  -2.765312
H    9.877334   3.905100  -5.183708

