%chk=mol_2794.chk
# wB97XD/Def2SVP opt pop=full gfinput

C 6 H 12 O 1

1 2
C    1.696105  -0.261255  -0.156809
C    4.595360  -0.436224  -0.066405
C    5.365783  -1.654304   2.463201
C    5.530019  -2.131252  -2.234299
C    5.821755   2.207200  -0.214503
C    5.304707   3.591065  -2.654593
O    6.970444   4.195211  -4.151464
H    1.026235   0.453308  -1.979356
H    0.977404   0.995942   1.323262
H    0.829514  -2.121614   0.125194
H    4.726640  -0.511795   4.068089
H    7.422996  -1.847472   2.605687
H    4.543185  -3.543822   2.669370
H    4.943921  -1.401893  -4.080694
H    4.770708  -4.050439  -2.059745
H    7.596132  -2.271111  -2.234828
H    7.878703   2.055361  -0.002173
H    5.140962   3.415850   1.325076
H    3.315695   4.090199  -3.022674

