%chk=mol_3357.chk
# wB97XD/Def2SVP opt pop=full gfinput

C 5 H 8 O 2

1 2
C    7.381100  -2.088979   0.001795
O    5.486026  -0.184154  -0.122738
C    6.282489   2.271205  -0.192166
C    8.643249   3.199231  -0.172324
C    9.301289   5.890900  -0.249179
C    9.266215   7.376754   2.183314
O   11.578768   6.835461   0.887397
H    6.434007  -3.926416   0.052723
H    8.504845  -1.902104   1.729043
H    8.590449  -2.039808  -1.675734
H    4.638314   3.494519  -0.269910
H   10.251179   1.927256  -0.099589
H    8.686221   6.853111  -1.953939
H    8.929825   6.402052   3.950491
H    8.580207   9.302952   2.129003

