%chk=mol_3385.chk
# wB97XD/Def2SVP opt pop=full gfinput

C 6 H 12 O 1

1 2
C    8.240585  -0.259403   4.041387
O    6.961902   2.103776   3.983732
C    6.556329   3.018101   1.473571
C    4.455936   4.987856   1.607571
C    8.953957   4.205605   0.515517
C   10.152497   3.504497  -1.609291
C   12.551410   4.677450  -2.524806
H    8.402006  -0.857123   6.013052
H   10.145921  -0.093145   3.256886
H    7.166370  -1.694310   3.009559
H    5.922874   1.468374   0.250880
H    4.940840   6.521464   2.913882
H    2.716406   4.128957   2.331601
H    4.057261   5.804483  -0.251730
H    9.737154   5.710129   1.681327
H    9.382055   1.989371  -2.765180
H   13.192594   6.210925  -1.294179
H   12.277928   5.446436  -4.424284
H   14.043953   3.249309  -2.609050

