%chk=mol_5330.chk
# wB97XD/Def2SVP opt pop=full gfinput

C 5 H 7 N 1 O 1

1 2
C    2.478811  -0.617808  -1.206571
O    4.664827  -0.127386   0.280227
C    5.785397   2.207710   0.000000
C    4.578579   4.452214  -0.134171
C    1.828253   5.001236   0.170453
C    8.442351   2.207710   0.000000
N   10.617445   2.207710   0.000000
H    2.420739  -2.650360  -1.591924
H    2.518192   0.369971  -3.025754
H    0.770309  -0.145603  -0.149345
H    5.728780   6.150170  -0.362015
H    0.895277   3.661892   1.434094
H    0.880234   5.019377  -1.665397
H    1.593587   6.871630   1.025025

