%chk=mol_0703.chk
# wB97XD/Def2SVP opt pop=full gfinput

C 5 H 8 O 1

1 2
C    1.889726   0.000000   0.000000
C    4.618491   0.000000   0.000000
C    6.867567   0.000000   0.000000
C    9.596332   0.000000   0.000000
C   10.657602  -1.398189  -2.274871
O   10.501680   2.535049  -0.051401
H    1.145136   1.929165   0.021978
H    1.145023  -0.983659   1.659633
H    1.145193  -0.945468  -1.681762
H   10.318906  -0.873035   1.730895
H   10.056065  -0.513193  -4.050817
H   10.051737  -3.377961  -2.302234
H   12.728401  -1.342480  -2.257996
H    9.587317   3.396613  -1.392407

