%chk=mol_3819.chk
# wB97XD/Def2SVP opt pop=full gfinput

C 5 H 9 N 1 O 1

1 2
C   -2.814426   1.465067   0.499455
C   -2.581952  -1.295747  -0.290583
C   -0.034771  -2.319431   0.401491
N    2.012917  -2.092721  -1.448721
C    2.105438  -0.481275   0.792362
C    1.591414   2.305542   0.632756
O   -0.780211   2.900371  -0.541180
H   -4.583739   2.252648  -0.227202
H   -2.832492   1.672993   2.561599
H   -2.859817  -1.464859  -2.337591
H   -4.067503  -2.407984   0.626444
H   -0.102102  -4.047397   1.492336
H    3.246493  -3.568275  -1.295426
H    3.573359  -0.920731   2.148524
H    1.589638   3.125588   2.534803
H    3.084978   3.244849  -0.446807

