%chk=mol_0254.chk
# wB97XD/Def2SVP opt pop=full gfinput

C 5 H 11 N 1

1 2
C    2.012105   0.195265  -0.218093
C    4.826153   0.138479  -0.094600
C    6.317865  -1.187995  -2.121142
C    6.520236   1.649353  -1.857261
C    5.402274   3.237158  -3.947506
N    8.865159   2.677893  -0.773219
H    1.282822   1.706536   0.988213
H    1.246955  -1.597083   0.474057
H    1.284976   0.485716  -2.127983
H    5.448421  -0.133490   1.841066
H    5.315478  -1.951312  -3.736952
H    7.914872  -2.337100  -1.549122
H    3.850676   2.288213  -4.931996
H    6.846516   3.668374  -5.366236
H    4.688845   5.023176  -3.187382
H    9.541303   1.549821   0.630620
H    8.528523   4.390458   0.041895

