%chk=mol_1361.chk
# wB97XD/Def2SVP opt pop=full gfinput

C 6 H 7 N 1

1 2
C    3.913056  -1.460739  -2.230217
C    4.254170   0.060736  -0.225728
C    2.771945  -0.331912   2.006511
N    1.569418  -0.660781   3.809877
C    6.152381   2.092739  -0.079350
C    6.400786   3.974604  -2.210696
C    5.302496   4.794273   0.268776
H    5.041714  -1.241550  -3.928514
H    2.508611  -2.958820  -2.225228
H    7.889229   1.540013   0.869557
H    5.130871   3.864792  -3.815130
H    8.281914   4.632456  -2.689628
H    6.437994   6.004794   1.471719
H    3.298536   5.222504   0.327225

