%chk=mol_1533.chk
# wB97XD/Def2SVP opt pop=full gfinput

C 5 H 14 N 2

1 2
C    1.974272  -0.126801  -0.037039
C    4.845522  -0.079387   0.088912
N    5.751287   2.526885  -0.058279
C    8.512403   2.631311   0.057391
C    9.404203   5.382337   0.002098
C   12.288814   5.521383   0.047602
N   13.136128   8.144701   0.066688
H    1.291401  -2.076337   0.062739
H    1.290777   0.698575  -1.806257
H    1.137048   0.922583   1.536876
H    5.605665  -1.192606  -1.484720
H    5.461025  -0.963647   1.859755
H    5.001689   3.555501   1.389553
H    9.318221   1.614865  -1.558022
H    9.192459   1.724375   1.791782
H    8.628849   6.402241   1.633139
H    8.686089   6.319452  -1.703645
H   13.076055   4.560854  -1.610198
H   13.022160   4.568904   1.733106
H   12.481131   9.048368  -1.503957
H   15.057773   8.198993  -0.042160

