%chk=mol_3413.chk
# wB97XD/Def2SVP opt pop=full gfinput

C 6 H 10 O 1

1 2
C    1.448022   1.475309   0.749220
O    4.069657   1.035116   0.363281
C    5.401045   3.331304  -0.126442
C    8.175616   2.683487  -0.567126
C    9.823533   5.013368  -0.973946
C    9.238720   6.314747  -3.358232
C    8.763964   7.377623  -5.305803
H    0.527328  -0.341322   1.095947
H    0.601764   2.333906  -0.930955
H    1.154150   2.690913   2.395870
H    5.209049   4.594245   1.504184
H    4.587065   4.250032  -1.793615
H    8.332709   1.384243  -2.176719
H    8.883017   1.630739   1.074007
H   11.811185   4.429254  -0.999193
H    9.606064   6.322854   0.616145
H    8.345749   8.317422  -7.039759

