%chk=mol_0371.chk
# wB97XD/Def2SVP opt pop=full gfinput

C 6 H 6

1 2
C   -1.436362   2.209865  -0.002872
C    1.195422   2.353087  -0.001228
C    2.635695   0.145188   0.001909
C    1.443656  -2.206312   0.002967
C   -1.188335  -2.349591   0.001002
C   -2.628326  -0.141824  -0.002116
H   -2.558538   3.929119  -0.005556
H    2.123769   4.184194  -0.002022
H    4.686029   0.256927   0.003439
H    2.565832  -3.925793   0.005669
H   -2.116512  -4.180887   0.001757
H   -4.678886  -0.253450  -0.003666

