%chk=mol_6029.chk
# wB97XD/Def2SVP opt pop=full gfinput

C 4 H 4 N 2 O 1

1 2
O    2.036841  -0.041990   0.853495
C    4.275997  -0.080691   0.355798
C    6.264782   1.958966  -0.160268
N    8.022227  -0.100892  -0.813470
C    6.291900  -2.135239   0.068767
C    5.705726  -3.972412  -1.863364
N    5.308335  -5.426972  -3.458822
H    6.802183   3.035694   1.518508
H    5.802574   3.233737  -1.716022
H    8.427952  -0.186195  -2.702762
H    6.855208  -2.955475   1.883188

