%chk=mol_5424.chk
# wB97XD/Def2SVP opt pop=full gfinput

C 4 H 7 N 1 O 2

1 2
C    8.150558  -3.594429   1.602129
O    9.376065  -1.465804   0.484677
C    7.768362   0.398865  -0.242150
O    5.471740   0.341322   0.019540
N    9.137657   2.319261  -1.305423
C    8.116468   4.488553  -2.267350
C    9.543590   6.298098  -3.292508
H    9.586203  -5.030300   1.985252
H    6.754070  -4.401663   0.306929
H    7.267112  -3.055895   3.392682
H   11.026174   2.041962  -1.356313
H    6.069573   4.671743  -2.162130
H   11.584172   6.152098  -3.416625
H    8.672463   7.996376  -4.044127

