%chk=mol_4212.chk
# wB97XD/Def2SVP opt pop=full gfinput

C 4 H 7 N 1 O 2

1 2
C    1.920510   0.213086   0.286142
C    4.705985  -0.322444  -0.119280
O    6.265028   1.654058   0.995281
C    7.584208  -0.015874   2.447158
O    9.386364   0.407916   3.787673
C    5.914578  -2.316559   1.628453
N    7.191901  -4.285842   0.117541
H    0.774977  -1.379217  -0.370500
H    1.340232   1.892523  -0.773181
H    1.487366   0.535057   2.283772
H    5.154304  -0.516840  -2.135995
H    4.716945  -3.047731   3.144731
H    8.544529  -3.626214  -1.089181
H    6.011975  -5.400781  -0.915912

