%chk=mol_2180.chk
# wB97XD/Def2SVP opt pop=full gfinput

C 6 H 6 O 1

1 2
C    4.217113   0.547416   1.928636
C    4.006786  -0.264732  -0.904291
C    4.543468   2.378957  -1.503277
C    4.896243   4.416876  -2.981667
O    5.429580   6.432344  -1.387456
C    5.355503   5.548122   1.083607
C    4.785032   3.071806   0.963836
H    5.715817  -0.269191   3.098886
H    2.504851   0.482560   3.093406
H    2.190873  -0.940403  -1.632326
H    5.425990  -1.581398  -1.643079
H    4.867613   4.845295  -4.976688
H    5.720447   6.935559   2.534217

