%chk=mol_1450.chk
# wB97XD/Def2SVP opt pop=full gfinput

C 5 H 12 N 2

1 2
C    3.525171  -1.232196   1.724337
C    4.329873   0.309839  -0.557110
C    6.231882   2.328010   0.232039
N    5.370545   4.514235   0.940554
N    8.798943   1.815403   0.264184
C    9.892320  -0.315150  -1.086158
C   10.557258   3.855192   0.873620
H    2.161979  -2.684262   1.169797
H    2.639721  -0.028705   3.157071
H    5.146839  -2.165929   2.607406
H    2.673887   1.229059  -1.394750
H    5.124805  -0.917745  -2.014656
H    3.438357   4.550291   0.840607
H    9.016979  -2.094629  -0.499398
H   11.920732  -0.503744  -0.715129
H    9.640702  -0.078613  -3.126911
H    9.938485   4.903972   2.547918
H   10.719037   5.165755  -0.718682
H   12.444527   3.120543   1.305876

