%chk=mol_2028.chk
# wB97XD/Def2SVP opt pop=full gfinput

C 6 H 11 N 1

1 2
N    2.256654   0.635950   0.334141
C    4.883676   0.071564  -0.275881
C    4.973343  -1.175618  -2.819623
C    5.936197  -3.477077  -3.258436
C    6.287686   2.543212  -0.178220
C    7.682039   3.328620   2.186753
C    9.139831   2.592874  -0.137137
H    2.187245   1.374908   2.108670
H    1.283880  -1.022701   0.411488
H    5.626433  -1.217210   1.169230
H    4.210177  -0.098814  -4.395957
H    6.725592  -4.622043  -1.750869
H    5.950427  -4.260085  -5.154209
H    5.364838   4.009356  -1.279590
H    7.729547   2.044306   3.782287
H    7.637536   5.309828   2.706352
H   10.076435   4.075610  -1.196801
H   10.147338   0.809559  -0.127727

