%chk=mol_0857.chk
# wB97XD/Def2SVP opt pop=full gfinput

C 5 H 6 O 1

1 2
O    2.164058   0.049019  -0.885960
C    4.386583   0.006520  -0.271043
C    5.951579  -2.332130   0.077328
C    8.482527  -1.272353   0.953650
C    8.166205   1.535176   0.869255
C    5.863102   2.310870   0.194358
H    6.131065  -3.330605  -1.722655
H    5.105284  -3.562001   1.504373
H   10.018818  -1.885663  -0.289563
H    8.923627  -1.895074   2.878204
H    9.690856   2.816391   1.337378
H    5.134178   4.197913  -0.001946

