%chk=mol_3420.chk
# wB97XD/Def2SVP opt pop=full gfinput

C 5 H 8 O 2

1 2
C    8.422850  -1.629379  -0.789376
O    6.300272  -0.239485   0.103576
C    6.481364   2.334228   0.104143
C    8.435511   3.801109  -0.577160
C    8.347638   6.630237  -0.494315
C   10.186379   7.552158   1.479107
O   12.218478   8.550425   0.971244
H    7.958733  -3.641275  -0.675747
H   10.083295  -1.288529   0.396068
H    8.821412  -1.176695  -2.768090
H    4.703264   3.107749   0.776734
H   10.194090   2.981213  -1.249506
H    6.469950   7.356666  -0.019030
H    8.882676   7.404325  -2.336949
H    9.612659   7.246041   3.461222

