%chk=mol_5022.chk
# wB97XD/Def2SVP opt pop=full gfinput

C 5 H 11 N 1 O 1

1 2
C    3.981256  -0.508960  -2.944760
N    4.454803   0.208437  -0.328982
C    5.806732   2.611053  -0.129182
C    4.302661   4.913231  -0.935981
C    5.760943   7.035299   0.315358
O    6.817735   6.037732   2.604874
C    6.467644   3.344097   2.587583
H    3.038906  -2.351462  -2.988904
H    5.741196  -0.673366  -4.019750
H    2.728311   0.838150  -3.891494
H    5.491109  -1.178736   0.518711
H    7.571547   2.528454  -1.220971
H    2.379770   4.838719  -0.162082
H    4.163199   5.154795  -2.983991
H    7.329832   7.669208  -0.877475
H    4.567695   8.665282   0.752489
H    8.187484   2.415580   3.263141
H    4.928028   2.909611   3.904136

