%chk=mol_1127.chk
# wB97XD/Def2SVP opt pop=full gfinput

C 4 H 5 N 1 O 1

1 2
O    2.076696  -0.445824   0.579277
C    4.665110   0.144602   0.049303
C    5.288077  -1.140317  -2.410969
C    6.305034  -0.146076  -4.510550
C    5.096837   2.905794   0.061567
N    5.409719   5.078034   0.150120
H    1.528600   0.675974   1.929051
H    5.800779  -0.726411   1.545569
H    4.824301  -3.146148  -2.445419
H    6.821836   1.833866  -4.673935
H    6.635131  -1.322865  -6.161282

